
##########################################################################
#               Crystallographic Information Format file
#               Produced by PyCifRW module
#
#  This is a CIF file.  CIF has been adopted by the International
#  Union of Crystallography as the standard for data archiving and
#  transmission.
#
#  For information on this file format, follow the CIF links at
#  http://www.iucr.org
##########################################################################

data_image0

_cell_length_a                          27.1793
_cell_length_b                          27.1479
_cell_length_c                          27.1311
_cell_angle_alpha                       89.9687
_cell_angle_beta                        90
_cell_angle_gamma                       90.1412
_symmetry_space_group_name_H-M          'P 1'
_space_group_name_Hall                  'P 1'
loop_
  _atom_site_type_symbol
  _atom_site_label
  _atom_site_fract_x
  _atom_site_fract_y
  _atom_site_fract_z
  _atom_site_charge
         O         O         0.82780   0.74488   0.30238   -0.568783           
         B         B         0.83342   0.71515   0.26091   0.717929  
         C         C         0.90795   0.76526   0.22983   -0.052431           
         H         H         0.90155   0.79120   0.25971   0.109080  
         C         C         0.87652   0.72420   0.22466   -0.260103           
         C         C         0.92562   0.69886   0.15356   -0.159316           
         H         H         0.93232   0.67230   0.12442   0.109769  
         C         C         0.95653   0.73992   0.15871   0.080151  
         C         C         0.88618   0.69138   0.18581   -0.043528           
         H         H         0.86258   0.65927   0.18105   0.104223  
         C         C         0.94698   0.77296   0.19753   -0.149217           
         H         H         0.97085   0.80485   0.20229   0.112904  
         O         O         0.32483   0.24493   0.80324   -0.569748           
         B         B         0.33318   0.21308   0.76399   0.719430  
         C         C         0.40304   0.26704   0.72848   -0.049706           
         H         H         0.39356   0.29517   0.75543   0.105254  
         C         C         0.37614   0.22258   0.72774   -0.260719           
         C         C         0.42818   0.19516   0.65967   -0.158718           
         H         H         0.43812   0.16648   0.63365   0.109383  
         C         C         0.45418   0.23976   0.65993   0.078472  
         C         C         0.38967   0.18691   0.69283   -0.043879           
         H         H         0.36993   0.15199   0.69193   0.104562  
         C         C         0.44127   0.27542   0.69535   -0.147152           
         H         H         0.46185   0.30983   0.69695   0.113653  
         O         O         0.67104   0.25739   0.80238   -0.571087           
         B         B         0.66450   0.28884   0.76226   0.719931  
         C         C         0.59209   0.23718   0.72948   -0.051362           
         H         H         0.60014   0.21040   0.75820   0.106574  
         C         C         0.62125   0.28010   0.72594   -0.260378           
         C         C         0.57006   0.30565   0.65623   -0.159209           
         H         H         0.56135   0.33317   0.62850   0.109908  
         C         C         0.54184   0.26251   0.65943   0.078952  
         C         C         0.60925   0.31404   0.68866   -0.043893           
         H         H         0.63069   0.34777   0.68510   0.104428  
         C         C         0.55333   0.22864   0.69705   -0.144836           
         H         H         0.53119   0.19543   0.70099   0.110410  
         O         O         0.17384   0.75752   0.30241   -0.569634           
         B         B         0.16698   0.78869   0.26219   0.719699  
         C         C         0.09448   0.73681   0.22930   -0.051594           
         H         H         0.10237   0.70981   0.25790   0.106182  
         C         C         0.12379   0.77963   0.22591   -0.259684           
         C         C         0.07385   0.80490   0.15523   -0.157758           
         H         H         0.06604   0.83204   0.12686   0.109839  
         C         C         0.04493   0.76225   0.15877   0.077597  
         C         C         0.11255   0.81334   0.18820   -0.044748           
         H         H         0.13434   0.84688   0.18480   0.104309  
         C         C         0.05583   0.72849   0.19669   -0.146914           
         H         H         0.03325   0.69555   0.20058   0.113806  
         O         O         0.17437   0.24474   0.19913   -0.569271           
         B         B         0.16632   0.21246   0.23820   0.719493  
         C         C         0.09588   0.26551   0.27195   -0.049992           
         H         H         0.10538   0.29303   0.24433   0.106035  
         C         C         0.12319   0.22150   0.27412   -0.261960           
         C         C         0.07081   0.19481   0.34221   -0.159627           
         H         H         0.06071   0.16655   0.36868   0.110721  
         C         C         0.04442   0.23903   0.34055   0.078661  
         C         C         0.10974   0.18636   0.30966   -0.043771           
         H         H         0.12978   0.15173   0.31159   0.104653  
         C         C         0.05721   0.27404   0.30438   -0.145247           
         H         H         0.03608   0.30791   0.30157   0.111576  
         O         O         0.67365   0.74275   0.69708   -0.570700           
         B         B         0.66760   0.71439   0.73937   0.720156  
         C         C         0.58965   0.76183   0.76647   -0.049125           
         H         H         0.59430   0.78579   0.73459   0.105118  
         C         C         0.62365   0.72355   0.77461   -0.260777           
         C         C         0.57641   0.70062   0.84795   -0.156826           
         H         H         0.57157   0.67599   0.87912   0.109629  
         C         C         0.54278   0.73883   0.83981   0.077601  
         C         C         0.61612   0.69334   0.81602   -0.044266           
         H         H         0.64177   0.66344   0.82314   0.104486  
         C         C         0.55017   0.76928   0.79835   -0.149581           
         H         H         0.52422   0.79882   0.79091   0.112806  
         O         O         0.32136   0.75037   0.70022   -0.568873           
         B         B         0.32834   0.78173   0.74024   0.718790  
         C         C         0.40322   0.73228   0.77099   -0.052244           
         H         H         0.39579   0.70545   0.74213   0.106073  
         C         C         0.37227   0.77365   0.77579   -0.260548           
         C         C         0.42338   0.80067   0.84493   -0.157921           
         H         H         0.43125   0.82804   0.87303   0.110056  
         C         C         0.45355   0.75913   0.84037   0.078950  
         C         C         0.38336   0.80760   0.81327   -0.042434           
         H         H         0.36048   0.84019   0.81758   0.103590  
         C         C         0.44300   0.72528   0.80251   -0.146523           
         H         H         0.46671   0.69336   0.79783   0.113304  
         O         O         0.82901   0.25693   0.19564   -0.569711           
         B         B         0.83632   0.28820   0.23565   0.720550  
         C         C         0.90945   0.23747   0.26764   -0.048552           
         H         H         0.90317   0.21191   0.23738   0.106269  
         C         C         0.87880   0.27897   0.27239   -0.263879           
         C         C         0.92669   0.30334   0.34467   -0.158562           
         H         H         0.93349   0.32975   0.37396   0.109713  
         C         C         0.95681   0.26182   0.33993   0.080466  
         C         C         0.88818   0.31155   0.31152   -0.042945           
         H         H         0.86517   0.34405   0.31575   0.104245  
         C         C         0.94763   0.22910   0.30069   -0.150145           
         H         H         0.97132   0.19723   0.29589   0.113486  
         O         O         0.29574   0.82054   0.74754   -0.569530           
         B         B         0.25842   0.83029   0.71372   0.717639  
         C         C         0.22727   0.90441   0.76425   -0.049706           
         H         H         0.25522   0.89595   0.79169   0.105857  
         C         C         0.22367   0.87482   0.72169   -0.260974           
         C         C         0.15596   0.92734   0.69422   -0.157801           
         H         H         0.12891   0.93615   0.66612   0.108653  
         C         C         0.15888   0.95581   0.73721   0.078433  
         C         C         0.18765   0.88751   0.68678   -0.042853           
         H         H         0.18451   0.86593   0.65311   0.103769  
         C         C         0.19581   0.94410   0.77170   -0.146589           
         H         H         0.19972   0.96670   0.80458   0.112822  
         O         O         0.80446   0.32757   0.24280   -0.570211           
         B         B         0.76556   0.33578   0.21056   0.720408  
         C         C         0.72914   0.40410   0.26549   -0.049666           
         H         H         0.75559   0.39385   0.29383   0.105836  
         C         C         0.72918   0.37850   0.22027   -0.260936           
         C         C         0.66152   0.43108   0.19317   -0.158834           
         H         H         0.63581   0.44167   0.16443   0.109048  
         C         C         0.66113   0.45582   0.23846   0.078519  
         C         C         0.69481   0.39291   0.18441   -0.045080           
         H         H         0.69442   0.37410   0.14899   0.104705  
         C         C         0.69589   0.44196   0.27438   -0.147171           
         H         H         0.69674   0.46148   0.30942   0.113835  
         O         O         0.80007   0.67709   0.25247   -0.569784           
         B         B         0.76171   0.66798   0.28528   0.718957  
         C         C         0.72969   0.59454   0.23428   -0.050437           
         H         H         0.75751   0.60320   0.20673   0.106038  
         C         C         0.72698   0.62332   0.27743   -0.261203           
         C         C         0.65920   0.57066   0.30502   -0.159236           
         H         H         0.63255   0.56132   0.33338   0.109464  
         C         C         0.66091   0.54334   0.26126   0.078331  
         C         C         0.69146   0.61013   0.31275   -0.042490           
         H         H         0.68919   0.63103   0.34690   0.103796  
         C         C         0.69738   0.55549   0.22637   -0.146220           
         H         H         0.70026   0.53378   0.19280   0.112762  
         O         O         0.30224   0.17270   0.75725   -0.570015           
         B         B         0.26324   0.16415   0.78936   0.720212  
         C         C         0.22953   0.09364   0.73549   -0.048322           
         H         H         0.25790   0.10229   0.70849   0.105780  
         C         C         0.22709   0.12121   0.77944   -0.263232           
         C         C         0.15691   0.07071   0.80446   -0.158219           
         H         H         0.12923   0.06194   0.83198   0.109830  
         C         C         0.15917   0.04373   0.76049   0.078178  
         C         C         0.19020   0.10896   0.81355   -0.042667           
         H         H         0.18777   0.12966   0.84783   0.104534  
         C         C         0.19625   0.05574   0.72624   -0.147846           
         H         H         0.19886   0.03469   0.69223   0.113463  
         O         O         0.19753   0.17244   0.24496   -0.568739           
         B         B         0.23637   0.16429   0.21259   0.718654  
         C         C         0.26997   0.09220   0.26429   -0.049622           
         H         H         0.24098   0.09916   0.29107   0.106242  
         C         C         0.27271   0.12152   0.22150   -0.262034           
         C         C         0.34417   0.07354   0.19582   -0.160403           
         H         H         0.37230   0.06621   0.16839   0.109220  
         C         C         0.34162   0.04484   0.23865   0.080949  
         C         C         0.31033   0.11131   0.18754   -0.043629           
         H         H         0.31296   0.13321   0.15401   0.105015  
         C         C         0.30363   0.05462   0.27257   -0.147522           
         H         H         0.30032   0.03179   0.30540   0.112863  
         O         O         0.70156   0.67740   0.74986   -0.568844           
         B         B         0.74005   0.66783   0.71741   0.718874  
         C         C         0.77333   0.59523   0.76922   -0.048538           
         H         H         0.74624   0.60405   0.79741   0.105457  
         C         C         0.77538   0.62405   0.72606   -0.263013           
         C         C         0.84258   0.57182   0.69714   -0.158564           
         H         H         0.86878   0.56263   0.66839   0.107511  
         C         C         0.84112   0.54398   0.74057   0.078753  
         C         C         0.81043   0.61132   0.69021   -0.042143           
         H         H         0.81238   0.63266   0.65629   0.104104  
         C         C         0.80539   0.55595   0.77624   -0.146286           
         H         H         0.80287   0.53398   0.80969   0.113196  
         O         O         0.69755   0.32747   0.75501   -0.568731           
         B         B         0.73701   0.33443   0.78711   0.718942  
         C         C         0.77248   0.40531   0.73451   -0.050107           
         H         H         0.74502   0.39679   0.70655   0.105860  
         C         C         0.77411   0.37697   0.77807   -0.260477           
         C         C         0.84297   0.42829   0.80568   -0.159968           
         H         H         0.86971   0.43734   0.83405   0.110410  
         C         C         0.84140   0.45597   0.76212   0.078946  
         C         C         0.81002   0.38934   0.81329   -0.043139           
         H         H         0.81189   0.36834   0.84745   0.103826  
         C         C         0.80525   0.44402   0.72686   -0.144990           
         H         H         0.80288   0.46586   0.69332   0.110687  
         O         O         0.19982   0.82744   0.25465   -0.570064           
         B         B         0.23984   0.83437   0.28594   0.719320  
         C         C         0.27212   0.90724   0.23459   -0.049239           
         H         H         0.24328   0.89943   0.20786   0.105736  
         C         C         0.27612   0.87744   0.27697   -0.263566           
         C         C         0.34609   0.92783   0.30291   -0.161885           
         H         H         0.37445   0.93592   0.32995   0.110821  
         C         C         0.34207   0.95704   0.26061   0.080600  
         C         C         0.31367   0.88854   0.31081   -0.040601           
         H         H         0.31733   0.86629   0.34400   0.104163  
         C         C         0.30434   0.94629   0.22667   -0.148481           
         H         H         0.30041   0.96917   0.19397   0.114117  
         O         O         0.74287   0.30278   0.82715   -0.569665           
         B         B         0.71046   0.26361   0.83454   0.720890  
         C         C         0.76106   0.23189   0.90807   -0.052133           
         H         H         0.78648   0.26218   0.90128   0.106321  
         C         C         0.71926   0.22707   0.87765   -0.261344           
         C         C         0.69568   0.15499   0.92648   -0.157333           
         H         H         0.66924   0.12582   0.93380   0.108616  
         C         C         0.73770   0.15951   0.95611   0.077220  
         C         C         0.68682   0.18798   0.88788   -0.044060           
         H         H         0.65396   0.18339   0.86539   0.104297  
         C         C         0.77007   0.19900   0.94642   -0.145350           
         H         H         0.80222   0.20424   0.96976   0.113054  
         O         O         0.24711   0.80213   0.32513   -0.568901           
         B         B         0.21449   0.76326   0.33318   0.718364  
         C         C         0.26704   0.72811   0.40418   -0.049276           
         H         H         0.29498   0.75562   0.39565   0.105996  
         C         C         0.22364   0.72640   0.37575   -0.261557           
         C         C         0.19594   0.65721   0.42653   -0.156793           
         H         H         0.16757   0.63033   0.43527   0.109475  
         C         C         0.23934   0.65881   0.45429   0.080036  
         C         C         0.18842   0.69040   0.38784   -0.045167           
         H         H         0.15447   0.68867   0.36665   0.104205  
         C         C         0.27451   0.69530   0.44285   -0.146190           
         H         H         0.30777   0.69794   0.46505   0.111285  
         O         O         0.25279   0.79966   0.67289   -0.568601           
         B         B         0.28373   0.75919   0.66654   0.718895  
         C         C         0.23396   0.72747   0.59253   -0.051863           
         H         H         0.20686   0.75578   0.60068   0.106288  
         C         C         0.27624   0.72396   0.62235   -0.261239           
         C         C         0.30344   0.65521   0.57111   -0.158307           
         H         H         0.33108   0.62763   0.56270   0.109312  
         C         C         0.26087   0.65829   0.54222   0.079214  
         C         C         0.31081   0.68736   0.61069   -0.042163           
         H         H         0.34409   0.68409   0.63278   0.103497  
         C         C         0.22642   0.69537   0.55331   -0.146579           
         H         H         0.19350   0.69880   0.53077   0.113261  
         O         O         0.75925   0.30480   0.17014   -0.570071           
         B         B         0.78954   0.26396   0.16381   0.719374  
         C         C         0.73614   0.23001   0.09304   -0.050346           
         H         H         0.70999   0.25946   0.10026   0.105947  
         C         C         0.77895   0.22640   0.12217   -0.261206           
         C         C         0.80283   0.15469   0.07327   -0.158941           
         H         H         0.82956   0.12607   0.06543   0.110348  
         C         C         0.76034   0.15862   0.04433   0.078578  
         C         C         0.81175   0.18785   0.11169   -0.042863           
         H         H         0.84511   0.18405   0.13359   0.104307  
         C         C         0.72707   0.19685   0.05502   -0.148923           
         H         H         0.69423   0.20084   0.03245   0.113752  
         O         O         0.24297   0.19560   0.17250   -0.569479           
         B         B         0.21277   0.23646   0.16616   0.718759  
         C         C         0.26564   0.27115   0.09511   -0.050605           
         H         H         0.29343   0.24366   0.10380   0.105797  
         C         C         0.22198   0.27273   0.12313   -0.259778           
         C         C         0.19462   0.34139   0.07175   -0.158501           
         H         H         0.16622   0.36789   0.06244   0.109731  
         C         C         0.23850   0.34032   0.04476   0.077987  
         C         C         0.18678   0.30840   0.11055   -0.044202           
         H         H         0.15254   0.30997   0.13127   0.103921  
         C         C         0.27368   0.30424   0.05678   -0.143946           
         H         H         0.30742   0.30211   0.03527   0.110741  
         O         O         0.74679   0.69783   0.67625   -0.569655           
         B         B         0.71387   0.73570   0.66598   0.719483  
         C         C         0.76594   0.76983   0.59358   -0.049108           
         H         H         0.79428   0.74303   0.60264   0.105738  
         C         C         0.72193   0.77038   0.62117   -0.260646           
         C         C         0.69353   0.83801   0.56871   -0.156323           
         H         H         0.66463   0.86376   0.55882   0.108670  
         C         C         0.73814   0.83856   0.54284   0.077327  
         C         C         0.68582   0.80472   0.60733   -0.045366           
         H         H         0.65104   0.80536   0.62721   0.103985  
         C         C         0.77381   0.80307   0.55528   -0.147018           
         H         H         0.80799   0.80180   0.53441   0.113131  
         O         O         0.75481   0.69969   0.32499   -0.568971           
         B         B         0.78776   0.73804   0.33372   0.719682  
         C         C         0.73385   0.77305   0.40302   -0.048869           
         H         H         0.70548   0.74680   0.39227   0.105643  
         C         C         0.77913   0.77327   0.37763   -0.262462           
         C         C         0.80669   0.83968   0.43175   -0.156938           
         H         H         0.83565   0.86478   0.44335   0.109806  
         C         C         0.76112   0.84023   0.45583   0.078012  
         C         C         0.81537   0.80686   0.39305   -0.045394           
         H         H         0.85103   0.80698   0.37475   0.105217  
         C         C         0.72507   0.80584   0.44135   -0.147530           
         H         H         0.69010   0.80479   0.46089   0.113707  
         O         O         0.25664   0.19497   0.82985   -0.569172           
         B         B         0.28654   0.23617   0.83627   0.719126  
         C         C         0.23380   0.27022   0.90774   -0.049884           
         H         H         0.20654   0.24182   0.89993   0.105505  
         C         C         0.27706   0.27258   0.87912   -0.260552           
         C         C         0.30375   0.34249   0.92936   -0.158261           
         H         H         0.33171   0.36979   0.93810   0.109653  
         C         C         0.26039   0.34045   0.95712   0.079464  
         C         C         0.31164   0.30934   0.89074   -0.044984           
         H         H         0.34552   0.31161   0.86946   0.104647  
         C         C         0.22563   0.30353   0.94582   -0.147766           
         H         H         0.19214   0.30088   0.96768   0.113556  
         O         O         0.99312   0.07726   0.55071   -0.569161           
         B         B         0.96012   0.08525   0.51231   0.719837  
         C         C         0.01341   0.15567   0.47843   -0.048413           
         H         H         0.04022   0.14703   0.50691   0.105616  
         C         C         0.96976   0.12767   0.47545   -0.263681           
         C         C         0.94491   0.17842   0.40538   -0.158528           
         H         H         0.91769   0.18733   0.37747   0.109886  
         C         C         0.98841   0.20600   0.40852   0.078018  
         C         C         0.93589   0.13977   0.43830   -0.042532           
         H         H         0.90181   0.11882   0.43541   0.104276  
         C         C         0.02244   0.19412   0.44578   -0.146618           
         H         H         0.05592   0.21588   0.44919   0.113299  
         O         O         0.49320   0.57777   0.05475   -0.570419           
         B         B         0.46238   0.58456   0.01437   0.719939  
         C         C         0.51249   0.65868   0.98210   -0.051446           
         H         H         0.53811   0.65300   0.01240   0.106164  
         C         C         0.47153   0.62712   0.97745   -0.260893           
         C         C         0.44688   0.67424   0.90475   -0.157577           
         H         H         0.42036   0.68034   0.87546   0.109335  
         C         C         0.48796   0.70520   0.90917   0.077971  
         C         C         0.43897   0.63586   0.93821   -0.043744           
         H         H         0.40673   0.61236   0.93400   0.104625  
         C         C         0.52040   0.69699   0.94888   -0.146603           
         H         H         0.55160   0.72161   0.95401   0.112855  
         O         O         0.50667   0.92013   0.05289   -0.568848           
         B         B         0.53606   0.91483   0.01126   0.720046  
         C         C         0.48515   0.84104   0.98040   -0.051111           
         H         H         0.46022   0.84683   0.01125   0.106607  
         C         C         0.52597   0.87258   0.97448   -0.263140           
         C         C         0.54916   0.82526   0.90161   -0.157550           
         H         H         0.57474   0.81909   0.87149   0.109938  
         C         C         0.50874   0.79382   0.90786   0.077864  
         C         C         0.55743   0.86414   0.93433   -0.042245           
         H         H         0.58913   0.88817   0.92908   0.104099  
         C         C         0.47666   0.80252   0.94771   -0.146231           
         H         H         0.44532   0.77817   0.95330   0.113288  
         O         O         0.00939   0.41963   0.55716   -0.569878           
         B         B         0.03957   0.41245   0.51635   0.721205  
         C         C         0.98648   0.34110   0.48199   -0.050025           
         H         H         0.95953   0.34828   0.51079   0.105962  
         C         C         0.02974   0.36976   0.47982   -0.263084           
         C         C         0.05515   0.32137   0.40823   -0.159141           
         H         H         0.08272   0.31362   0.38035   0.108868  
         C         C         0.01175   0.29349   0.41010   0.078729  
         C         C         0.06373   0.35901   0.44233   -0.042873           
         H         H         0.09765   0.38029   0.44011   0.104616  
         C         C         0.97776   0.30380   0.44789   -0.146594           
         H         H         0.94452   0.28155   0.45066   0.112354  
         O         O         0.48849   0.41754   0.44047   -0.569775           
         B         B         0.45852   0.41141   0.48169   0.720554  
         C         C         0.51133   0.34091   0.51706   -0.050397           
         H         H         0.53808   0.34821   0.48809   0.105621  
         C         C         0.46785   0.36906   0.51881   -0.260460           
         C         C         0.44251   0.32062   0.59050   -0.160279           
         H         H         0.41461   0.31222   0.61792   0.109918  
         C         C         0.48634   0.29354   0.58928   0.077737  
         C         C         0.43377   0.35809   0.55623   -0.043242           
         H         H         0.39966   0.37895   0.55826   0.104360  
         C         C         0.52047   0.30417   0.55164   -0.146526           
         H         H         0.55410   0.28262   0.54926   0.113207  
         O         O         0.99520   0.92480   0.94756   -0.569952           
         B         B         0.96189   0.91541   0.98545   0.719165  
         C         C         0.01356   0.84302   0.01798   -0.051018           
         H         H         0.03963   0.85035   0.98840   0.106135  
         C         C         0.97109   0.87246   0.02186   -0.260972           
         C         C         0.94671   0.82336   0.09340   -0.158788           
         H         H         0.91986   0.81567   0.12207   0.110277  
         C         C         0.98930   0.79459   0.08967   0.078600  
         C         C         0.93795   0.86172   0.06015   -0.042342           
         H         H         0.90470   0.88371   0.06381   0.103752  
         C         C         0.02240   0.80488   0.05104   -0.147250           
         H         H         0.05505   0.78212   0.04680   0.113688  
         O         O         0.00715   0.57753   0.94766   -0.569804           
         B         B         0.03838   0.58452   0.98776   0.719410  
         C         C         0.98708   0.65719   0.01964   -0.049167           
         H         H         0.96083   0.64954   0.99032   0.105637  
         C         C         0.02928   0.62749   0.02396   -0.262659           
         C         C         0.05431   0.67749   0.09452   -0.158362           
         H         H         0.08132   0.68546   0.12290   0.109216  
         C         C         0.01200   0.70658   0.09038   0.079138  
         C         C         0.06261   0.63847   0.06198   -0.042190           
         H         H         0.09570   0.61632   0.06589   0.104461  
         C         C         0.97867   0.69594   0.05204   -0.149430           
         H         H         0.94624   0.71888   0.04745   0.113944  
         O         O         0.50470   0.07508   0.44944   -0.570869           
         B         B         0.53640   0.08329   0.48889   0.720048  
         C         C         0.48336   0.15453   0.52228   -0.050044           
         H         H         0.45614   0.14558   0.49423   0.105186  
         C         C         0.52694   0.12655   0.52499   -0.260118           
         C         C         0.55303   0.17898   0.59358   -0.158032           
         H         H         0.58096   0.18861   0.62057   0.109705  
         C         C         0.50927   0.20605   0.59124   0.076736  
         C         C         0.56153   0.13983   0.56118   -0.043842           
         H         H         0.59592   0.11953   0.56371   0.104473  
         C         C         0.47476   0.19337   0.55459   -0.146440           
         H         H         0.44114   0.21481   0.55125   0.113038  
         O         O         0.07751   0.55238   0.99514   -0.569920           
         B         B         0.08424   0.51225   0.96399   0.719972  
         C         C         0.15506   0.47826   0.01648   -0.050818           
         H         H         0.14643   0.50626   0.04384   0.105995  
         C         C         0.12685   0.47581   0.97300   -0.261275           
         C         C         0.17820   0.40727   0.94597   -0.160456           
         H         H         0.18743   0.38047   0.91777   0.110422  
         C         C         0.20551   0.40930   0.98973   0.080193  
         C         C         0.13920   0.43979   0.93800   -0.043783           
         H         H         0.11831   0.43761   0.90382   0.104784  
         C         C         0.19358   0.44570   0.02467   -0.146953           
         H         H         0.21529   0.44848   0.05825   0.113475  
         O         O         0.57647   0.05212   0.49541   -0.570485           
         B         B         0.58658   0.01485   0.46162   0.719166  
         C         C         0.65476   0.97734   0.51606   -0.048563           
         H         H         0.64459   0.00332   0.54483   0.105224  
         C         C         0.62966   0.97858   0.47057   -0.259352           
         C         C         0.68215   0.91103   0.44268   -0.160570           
         H         H         0.69301   0.88599   0.41344   0.109849  
         C         C         0.70605   0.90922   0.48841   0.080346  
         C         C         0.64448   0.94496   0.43410   -0.044468           
         H         H         0.62635   0.94551   0.39833   0.104011  
         C         C         0.69217   0.94353   0.52471   -0.145964           
         H         H         0.71153   0.94368   0.55982   0.110856  
         O         O         0.91930   0.05461   0.50734   -0.569067           
         B         B         0.91371   0.01367   0.53789   0.719032  
         C         C         0.84304   0.97891   0.48543   -0.052522           
         H         H         0.85181   0.00675   0.45788   0.108142  
         C         C         0.87056   0.97731   0.52943   -0.260515           
         C         C         0.81915   0.90827   0.55619   -0.159353           
         H         H         0.80953   0.88168   0.58456   0.109150  
         C         C         0.79287   0.90921   0.51177   0.080079  
         C         C         0.85772   0.94145   0.56454   -0.043855           
         H         H         0.87801   0.93975   0.59911   0.104228  
         C         C         0.80518   0.94550   0.47673   -0.147707           
         H         H         0.78424   0.94758   0.44263   0.113109  
         O         O         0.42317   0.55236   0.00719   -0.570914           
         B         B         0.41424   0.51396   0.03998   0.720876  
         C         C         0.34269   0.48064   0.98724   -0.047776           
         H         H         0.35108   0.50910   0.96022   0.104432  
         C         C         0.37060   0.47829   0.03099   -0.262249           
         C         C         0.31957   0.40864   0.05670   -0.159557           
         H         H         0.31023   0.38159   0.08470   0.109475  
         C         C         0.29297   0.41015   0.01248   0.078460  
         C         C         0.35785   0.44193   0.06559   -0.042635           
         H         H         0.37808   0.43983   0.10015   0.104367  
         C         C         0.30469   0.44739   0.97820   -0.147457           
         H         H         0.28320   0.45049   0.94450   0.113188  
         O         O         0.42062   0.44475   0.49014   -0.570753           
         B         B         0.41380   0.48498   0.45916   0.721628  
         C         C         0.34297   0.51891   0.51227   -0.049450           
         H         H         0.35084   0.49028   0.53922   0.105681  
         C         C         0.37143   0.52164   0.46890   -0.263056           
         C         C         0.32142   0.59176   0.44319   -0.158408           
         H         H         0.31269   0.61911   0.41533   0.109420  
         C         C         0.29380   0.58941   0.48671   0.078532  
         C         C         0.35976   0.55862   0.43465   -0.044499           
         H         H         0.38076   0.56117   0.40058   0.105263  
         C         C         0.30492   0.55198   0.52088   -0.146284           
         H         H         0.28272   0.54851   0.55408   0.112954  
         O         O         0.92087   0.94552   0.99073   -0.570369           
         B         B         0.91469   0.98687   0.96094   0.720322  
         C         C         0.84130   0.01831   0.01243   -0.049857           
         H         H         0.84785   0.98817   0.03807   0.105846  
         C         C         0.87206   0.02348   0.97087   -0.261627           
         C         C         0.82348   0.09555   0.94721   -0.156194           
         H         H         0.81643   0.12488   0.92092   0.108514  
         C         C         0.79315   0.09028   0.98864   0.080206  
         C         C         0.86230   0.06288   0.93870   -0.043188           
         H         H         0.88526   0.06773   0.90616   0.103708  
         C         C         0.80270   0.05083   0.02103   -0.150646           
         H         H         0.77887   0.04533   0.05280   0.113865  
         O         O         0.57421   0.94807   0.00287   -0.569039           
         B         B         0.58326   0.98620   0.03609   0.717543  
         C         C         0.65578   0.01950   0.98467   -0.050146           
         H         H         0.64818   0.99080   0.95771   0.105624  
         C         C         0.62642   0.02249   0.02738   -0.262304           
         C         C         0.67618   0.09297   0.05359   -0.159024           
         H         H         0.68402   0.12096   0.08109   0.110224  
         C         C         0.70498   0.09005   0.01086   0.079659  
         C         C         0.63751   0.05979   0.06155   -0.041603           
         H         H         0.61565   0.06266   0.09505   0.104093  
         C         C         0.69425   0.05247   0.97669   -0.147429           
         H         H         0.71679   0.04916   0.94373   0.113139  
         O         O         0.07837   0.44489   0.50754   -0.570065           
         B         B         0.08603   0.48513   0.53831   0.720856  
         C         C         0.15654   0.51895   0.48414   -0.050133           
         H         H         0.14825   0.49036   0.45725   0.106355  
         C         C         0.12866   0.52152   0.52789   -0.262485           
         C         C         0.17919   0.59159   0.55319   -0.159163           
         H         H         0.18826   0.61896   0.58091   0.110471  
         C         C         0.20623   0.58941   0.50930   0.078348  
         C         C         0.14084   0.55840   0.56206   -0.042433           
         H         H         0.12017   0.56078   0.59632   0.103940  
         C         C         0.19450   0.55223   0.47503   -0.145341           
         H         H         0.21602   0.54921   0.44133   0.110965  
         O         O         0.55268   0.99204   0.07688   -0.569230           
         B         B         0.51335   0.95996   0.08448   0.719065  
         C         C         0.47926   0.01431   0.15374   -0.049911           
         H         H         0.50722   0.04142   0.14407   0.105542  
         C         C         0.47694   0.96979   0.12713   -0.262155           
         C         C         0.40783   0.94499   0.17906   -0.158535           
         H         H         0.38078   0.91727   0.18915   0.110207  
         C         C         0.41007   0.98947   0.20513   0.078172  
         C         C         0.44058   0.93547   0.14053   -0.043822           
         H         H         0.43809   0.90061   0.12086   0.105177  
         C         C         0.44664   0.02393   0.19204   -0.147436           
         H         H         0.44964   0.05814   0.21269   0.114286  
         O         O         0.05459   0.49274   0.57812   -0.570991           
         B         B         0.01563   0.46065   0.58730   0.720720  
         C         C         0.97963   0.51516   0.65634   -0.049172           
         H         H         0.00718   0.54285   0.64719   0.105284  
         C         C         0.97874   0.47061   0.62969   -0.262339           
         C         C         0.90938   0.44435   0.68084   -0.160248           
         H         H         0.88277   0.41602   0.69046   0.110176  
         C         C         0.91016   0.48891   0.70688   0.078361  
         C         C         0.94294   0.43553   0.64281   -0.042574           
         H         H         0.94163   0.40056   0.62323   0.104754  
         C         C         0.94623   0.52404   0.69416   -0.146820           
         H         H         0.94825   0.55835   0.71478   0.112889  
         O         O         0.05224   0.50500   0.92470   -0.569994           
         B         B         0.01387   0.53773   0.91609   0.720548  
         C         C         0.98035   0.48535   0.84460   -0.050345           
         H         H         0.00814   0.45794   0.85342   0.106445  
         C         C         0.97847   0.52918   0.87236   -0.262354           
         C         C         0.90989   0.55588   0.82082   -0.159969           
         H         H         0.88339   0.58419   0.81128   0.109958  
         C         C         0.91089   0.51157   0.79437   0.079347  
         C         C         0.94288   0.56428   0.85943   -0.042437           
         H         H         0.94113   0.59874   0.87985   0.104317  
         C         C         0.94729   0.47675   0.80641   -0.145592           
         H         H         0.94975   0.44289   0.78511   0.111194  
         O         O         0.55685   0.00983   0.42010   -0.568941           
         B         B         0.51456   0.03828   0.41507   0.720250  
         C         C         0.48329   0.98762   0.34077   -0.048795           
         H         H         0.51323   0.96180   0.34703   0.105406  
         C         C         0.47837   0.02880   0.37200   -0.263475           
         C         C         0.40636   0.05325   0.32392   -0.159433           
         H         H         0.37698   0.07952   0.31750   0.109521  
         C         C         0.41125   0.01213   0.29317   0.077926  
         C         C         0.43925   0.06125   0.36271   -0.041825           
         H         H         0.43475   0.09348   0.38610   0.104202  
         C         C         0.45054   0.97956   0.30214   -0.146890           
         H         H         0.45557   0.94795   0.27806   0.112679  
         O         O         0.44579   0.49232   0.41977   -0.570479           
         B         B         0.48363   0.45900   0.41061   0.720355  
         C         C         0.52166   0.51413   0.34318   -0.051249           
         H         H         0.49502   0.54234   0.35300   0.106499  
         C         C         0.52080   0.46870   0.36840   -0.261172           
         C         C         0.58979   0.44205   0.31717   -0.158674           
         H         H         0.61549   0.41327   0.30681   0.109098  
         C         C         0.59106   0.48764   0.29292   0.078733  
         C         C         0.55536   0.43294   0.35440   -0.044075           
         H         H         0.55500   0.39730   0.37281   0.104594  
         C         C         0.55590   0.52331   0.30614   -0.147589           
         H         H         0.55535   0.55832   0.28658   0.114159  
         O         O         0.94769   0.99514   0.92251   -0.570471           
         B         B         0.98771   0.96401   0.91536   0.720729  
         C         C         0.02089   0.01577   0.84283   -0.050894           
         H         H         0.99290   0.04318   0.85107   0.105640  
         C         C         0.02377   0.97291   0.87206   -0.260303           
         C         C         0.09254   0.94582   0.82077   -0.159396           
         H         H         0.11987   0.91799   0.81222   0.109841  
         C         C         0.08994   0.98879   0.79233   0.079532  
         C         C         0.06012   0.93819   0.86008   -0.044509           
         H         H         0.06281   0.90446   0.88163   0.105230  
         C         C         0.05315   0.02343   0.80374   -0.147638           
         H         H         0.05002   0.05656   0.78137   0.113577  
         O         O         0.94772   0.00521   0.57526   -0.569194           
         B         B         0.98702   0.03750   0.58258   0.718841  
         C         C         0.02124   0.98509   0.65370   -0.051844           
         H         H         0.99341   0.95756   0.64497   0.109232  
         C         C         0.02356   0.02871   0.62551   -0.263393           
         C         C         0.09248   0.05530   0.67713   -0.159955           
         H         H         0.11948   0.08337   0.68641   0.109763  
         C         C         0.09043   0.01152   0.70443   0.080047  
         C         C         0.05975   0.06357   0.63820   -0.041422           
         H         H         0.06210   0.09789   0.61755   0.103637  
         C         C         0.05382   0.97679   0.69234   -0.145213           
         H         H         0.05093   0.94315   0.71399   0.110476  
         O         O         0.44553   0.50742   0.08009   -0.569306           
         B         B         0.48599   0.53832   0.08674   0.720614  
         C         C         0.52203   0.48438   0.15598   -0.049272           
         H         H         0.49421   0.45681   0.14732   0.105764  
         C         C         0.52331   0.52859   0.12872   -0.261926           
         C         C         0.59335   0.55471   0.17892   -0.160426           
         H         H         0.62044   0.58277   0.18792   0.109939  
         C         C         0.59193   0.51065   0.20578   0.079669  
         C         C         0.55983   0.56327   0.14079   -0.043472           
         H         H         0.56177   0.59770   0.12027   0.103958  
         C         C         0.55563   0.47560   0.19361   -0.146743           
         H         H         0.55355   0.44146   0.21455   0.112612  
         C         C         0.00081   0.75085   0.12445   -0.003027           
         C         C         0.49790   0.25061   0.62504   -0.002000           
         C         C         0.00035   0.25025   0.37469   -0.002310           
         C         C         0.49829   0.74917   0.87409   -0.002998           
         C         C         0.12464   -0.00001  0.74847   -0.004388           
         C         C         0.62641   0.49938   0.24979   -0.002628           
         C         C         0.37636   0.00112   0.24942   -0.003567           
         C         C         0.87578   0.50009   0.75096   -0.002480           
         C         C         0.74907   0.12460   -0.00002  -0.003084           
         C         C         0.25008   0.62401   0.49804   -0.004439           
         C         C         0.24946   0.37509   0.00093   -0.003677           
         C         C         0.74943   0.87427   0.49981   -0.003914 

