
##########################################################################
#               Crystallographic Information Format file
#               Produced by PyCifRW module
#
#  This is a CIF file.  CIF has been adopted by the International
#  Union of Crystallography as the standard for data archiving and
#  transmission.
#
#  For information on this file format, follow the CIF links at
#  http://www.iucr.org
##########################################################################

data_image0

_cell_length_a                          44.5355
_cell_length_b                          44.4898
_cell_length_c                          44.4579
_cell_angle_alpha                       90.2953
_cell_angle_beta                        89.6665
_cell_angle_gamma                       90.0121
_symmetry_space_group_name_H-M          'P 1'
_space_group_name_Hall                  'P 1'
loop_
  _atom_site_type_symbol
  _atom_site_label
  _atom_site_fract_x
  _atom_site_fract_y
  _atom_site_fract_z
  _atom_site_charge
         C         C         0.22722   0.21690   0.18336   0.027032  
         C         C         0.20191   0.23446   0.19279   0.025608  
         C         C         0.23544   0.25093   0.14227   0.173057  
         C         C         0.21087   0.26828   0.15172   0.175098  
         C         C         0.19404   0.26075   0.17656   -0.235383           
         C         C         0.24394   0.22549   0.15743   -0.232556           
         C         C         0.35362   0.05029   0.21872   -0.082263           
         C         C         0.35068   0.03250   0.24467   -0.207273           
         C         C         0.32780   0.03989   0.26550   -0.082883           
         C         C         0.30877   0.06427   0.26072   -0.055111           
         C         C         0.31179   0.08212   0.23472   -0.231450           
         C         C         0.33451   0.07464   0.21382   -0.052271           
         H         H         0.17545   0.27501   0.18338   0.140775  
         H         H         0.26308   0.21263   0.14939   0.137092  
         H         H         0.37089   0.04486   0.20213   0.099224  
         H         H         0.33707   0.08801   0.19353   0.106347  
         H         H         0.32469   0.02622   0.28556   0.104314  
         H         H         0.29127   0.06961   0.27710   0.107071  
         B         B         0.29065   0.10884   0.22928   0.587340  
         O         O         0.24826   0.26381   0.11689   -0.337800           
         O         O         0.13031   0.20313   0.29230   -0.336613           
         C         C         0.72464   0.71617   0.68382   0.027598  
         C         C         0.70021   0.73472   0.69364   0.025708  
         C         C         0.73305   0.74930   0.64218   0.175446  
         C         C         0.70906   0.76738   0.65172   0.173229  
         C         C         0.69258   0.76081   0.67703   -0.230757           
         C         C         0.74114   0.72387   0.65750   -0.234476           
         C         C         0.85160   0.55151   0.71827   -0.082506           
         C         C         0.84958   0.53364   0.74422   -0.207178           
         C         C         0.82687   0.54026   0.76547   -0.084046           
         C         C         0.80704   0.56405   0.76108   -0.056981           
         C         C         0.80905   0.58194   0.73507   -0.229347           
         C         C         0.83164   0.57524   0.71373   -0.052367           
         H         H         0.67418   0.77541   0.68363   0.137470  
         H         H         0.75974   0.71036   0.64929   0.137419  
         H         H         0.86878   0.54658   0.70141   0.100986  
         H         H         0.83340   0.58872   0.69342   0.106777  
         H         H         0.82452   0.52640   0.78548   0.105113  
         H         H         0.78966   0.56884   0.77775   0.107453  
         B         B         0.78716   0.60807   0.72996   0.584439  
         O         O         0.74560   0.76131   0.61634   -0.339044           
         O         O         0.62752   0.70451   0.79246   -0.337132           
         C         C         0.27373   0.78007   0.68285   0.025407  
         C         C         0.30038   0.76404   0.69083   0.027872  
         C         C         0.26703   0.74682   0.64068   0.172574  
         C         C         0.29350   0.73161   0.64801   0.174933  
         C         C         0.31029   0.73956   0.67263   -0.232831           
         C         C         0.25686   0.77084   0.65737   -0.233885           
         C         C         0.14526   0.94497   0.71811   -0.082347           
         C         C         0.15054   0.96607   0.74115   -0.205444           
         C         C         0.17478   0.96096   0.76075   -0.083665           
         C         C         0.19300   0.93566   0.75748   -0.056434           
         C         C         0.18782   0.91464   0.73425   -0.228636           
         C         C         0.16362   0.91974   0.71463   -0.053753           
         H         H         0.33065   0.72723   0.67755   0.138076  
         H         H         0.23637   0.78219   0.65089   0.141083  
         H         H         0.12671   0.94847   0.70267   0.100024  
         H         H         0.15929   0.90380   0.69649   0.107089  
         H         H         0.17947   0.97709   0.77863   0.103382  
         H         H         0.21159   0.93211   0.77287   0.106987  
         B         B         0.20866   0.88745   0.72982   0.586300  
         O         O         0.25452   0.73378   0.61532   -0.338619           
         O         O         0.36991   0.79671   0.79087   -0.337356           
         C         C         0.77334   0.28164   0.18338   0.025756  
         C         C         0.79962   0.26512   0.19141   0.027127  
         C         C         0.76583   0.24797   0.14168   0.174051  
         C         C         0.79195   0.23224   0.14914   0.175459  
         C         C         0.80897   0.24018   0.17357   -0.232921           
         C         C         0.75623   0.27248   0.15802   -0.234567           
         C         C         0.64704   0.44764   0.21692   -0.084349           
         C         C         0.65017   0.46745   0.24146   -0.205556           
         C         C         0.67342   0.46203   0.26216   -0.081285           
         C         C         0.69261   0.43749   0.25870   -0.058285           
         C         C         0.68932   0.41754   0.23420   -0.228235           
         C         C         0.66632   0.42312   0.21333   -0.053652           
         H         H         0.82903   0.22744   0.17865   0.137049  
         H         H         0.73598   0.28417   0.15135   0.138778  
         H         H         0.62954   0.45155   0.20039   0.100788  
         H         H         0.66373   0.40808   0.19412   0.106698  
         H         H         0.67660   0.47741   0.28102   0.103509  
         H         H         0.71038   0.43372   0.27496   0.107798  
         B         B         0.71036   0.39050   0.22980   0.584193  
         O         O         0.75306   0.23491   0.11647   -0.338195           
         O         O         0.86846   0.29393   0.29280   -0.336825           
         C         C         0.77279   0.71845   0.31669   0.027350  
         C         C         0.79804   0.73626   0.30781   0.025970  
         C         C         0.76320   0.75261   0.35765   0.171835  
         C         C         0.78778   0.77013   0.34876   0.175982  
         C         C         0.80523   0.76273   0.32428   -0.233885           
         C         C         0.75528   0.72706   0.34215   -0.232327           
         C         C         0.64636   0.55333   0.27990   -0.082112           
         C         C         0.64997   0.53391   0.25508   -0.208004           
         C         C         0.67397   0.53939   0.23498   -0.081387           
         C         C         0.69347   0.56352   0.23937   -0.057304           
         C         C         0.68979   0.58299   0.26425   -0.227847           
         C         C         0.66591   0.57745   0.28441   -0.054992           
         H         H         0.82400   0.77701   0.31822   0.138542  
         H         H         0.73610   0.71405   0.34969   0.138028  
         H         H         0.62825   0.54936   0.29595   0.099690  
         H         H         0.66285   0.59215   0.30384   0.106901  
         H         H         0.67759   0.52435   0.21588   0.104357  
         H         H         0.71185   0.56735   0.22360   0.107471  
         B         B         0.71140   0.60936   0.26975   0.585850  
         O         O         0.75017   0.76513   0.38320   -0.336286           
         O         O         0.87277   0.70462   0.21060   -0.337831           
         C         C         0.27275   0.21886   0.81621   0.024338  
         C         C         0.29789   0.23667   0.80699   0.028804  
         C         C         0.26526   0.25174   0.85861   0.171898  
         C         C         0.28986   0.26916   0.84957   0.175139  
         C         C         0.30628   0.26229   0.82424   -0.232790           
         C         C         0.25634   0.22686   0.84259   -0.233575           
         C         C         0.14669   0.05219   0.78022   -0.081784           
         C         C         0.15093   0.03298   0.75530   -0.204826           
         C         C         0.17473   0.03926   0.73522   -0.083251           
         C         C         0.19349   0.06392   0.73980   -0.057840           
         C         C         0.18926   0.08308   0.76482   -0.230996           
         C         C         0.16553   0.07683   0.78493   -0.053473           
         H         H         0.32528   0.27627   0.81818   0.136733  
         H         H         0.23724   0.21386   0.85036   0.140884  
         H         H         0.12864   0.04764   0.79620   0.100828  
         H         H         0.16206   0.09137   0.80443   0.107575  
         H         H         0.17874   0.02449   0.71598   0.103818  
         H         H         0.21175   0.06844   0.72406   0.107534  
         B         B         0.21036   0.10985   0.77008   0.588025  
         O         O         0.25306   0.26374   0.88478   -0.335133           
         O         O         0.36978   0.20605   0.70744   -0.338234           
         C         C         0.72522   0.28332   0.81734   0.025279  
         C         C         0.69984   0.26579   0.80835   0.027930  
         C         C         0.73281   0.25028   0.85914   0.172085  
         C         C         0.70805   0.23303   0.85027   0.173074  
         C         C         0.69145   0.24012   0.82536   -0.231663           
         C         C         0.74177   0.27513   0.84329   -0.233687           
         C         C         0.85441   0.44690   0.78130   -0.081753           
         C         C         0.84986   0.46730   0.75769   -0.206999           
         C         C         0.82521   0.46255   0.73847   -0.082630           
         C         C         0.80603   0.43811   0.74248   -0.057955           
         C         C         0.81059   0.41770   0.76615   -0.228548           
         C         C         0.83506   0.42257   0.78554   -0.053528           
         H         H         0.67266   0.22596   0.81909   0.136951  
         H         H         0.76129   0.28768   0.85063   0.139993  
         H         H         0.87308   0.45023   0.79668   0.099407  
         H         H         0.83877   0.40716   0.80410   0.107190  
         H         H         0.82084   0.47841   0.72042   0.103046  
         H         H         0.78713   0.43485   0.72740   0.107832  
         B         B         0.78917   0.39106   0.77091   0.586365  
         O         O         0.74545   0.23782   0.88461   -0.336594           
         O         O         0.63185   0.29376   0.70616   -0.337727           
         C         C         0.22608   0.78040   0.31601   0.028020  
         C         C         0.20031   0.76342   0.30709   0.027362  
         C         C         0.23294   0.74725   0.35786   0.173624  
         C         C         0.20744   0.73088   0.34948   0.173406  
         C         C         0.19106   0.73824   0.32446   -0.233336           
         C         C         0.24258   0.77172   0.34181   -0.233531           
         C         C         0.35309   0.94740   0.28401   -0.084074           
         C         C         0.35063   0.96547   0.25824   -0.206474           
         C         C         0.32853   0.95800   0.23687   -0.082068           
         C         C         0.30979   0.93324   0.24103   -0.056987           
         C         C         0.31232   0.91509   0.26681   -0.231647           
         C         C         0.33425   0.92267   0.28826   -0.051131           
         H         H         0.17160   0.72485   0.31854   0.139126  
         H         H         0.26258   0.78358   0.34898   0.138298  
         H         H         0.36984   0.95287   0.30093   0.099263  
         H         H         0.33641   0.90916   0.30848   0.106926  
         H         H         0.32586   0.97181   0.21687   0.103979  
         H         H         0.29282   0.92782   0.22434   0.107389  
         B         B         0.29130   0.88806   0.27125   0.590771  
         O         O         0.24541   0.73466   0.38330   -0.338014           
         O         O         0.13201   0.79398   0.20588   -0.339656           
         C         C         0.18410   0.22532   0.21892   0.029080  
         C         C         0.19307   0.19988   0.23623   0.027305  
         C         C         0.14156   0.23215   0.25178   0.173616  
         C         C         0.15058   0.20747   0.26895   0.173583  
         C         C         0.17581   0.19115   0.26174   -0.233861           
         C         C         0.15768   0.24143   0.22707   -0.237947           
         C         C         0.21977   0.35407   0.05484   -0.083173           
         C         C         0.24420   0.35027   0.03498   -0.204487           
         C         C         0.26443   0.32656   0.04054   -0.082289           
         C         C         0.26040   0.30745   0.06500   -0.057084           
         C         C         0.23584   0.31121   0.08483   -0.230705           
         C         C         0.21568   0.33496   0.07935   -0.052887           
         H         H         0.18186   0.17197   0.27539   0.138782  
         H         H         0.14981   0.26048   0.21421   0.141132  
         H         H         0.20362   0.37197   0.05082   0.099588  
         H         H         0.19653   0.33824   0.09434   0.106881  
         H         H         0.28334   0.32282   0.02531   0.103697  
         H         H         0.27622   0.28921   0.06878   0.107593  
         B         B         0.23070   0.28946   0.11115   0.587227  
         O         O         0.11526   0.24393   0.26374   -0.336563           
         O         O         0.29255   0.12861   0.20469   -0.338675           
         C         C         0.68281   0.72645   0.72029   0.027962  
         C         C         0.69042   0.70002   0.73677   0.025907  
         C         C         0.64147   0.73512   0.75408   0.173452  
         C         C         0.64832   0.70871   0.76959   0.172898  
         C         C         0.67243   0.69110   0.76169   -0.233241           
         C         C         0.65799   0.74432   0.72964   -0.232618           
         C         C         0.71754   0.85110   0.55359   -0.081661           
         C         C         0.74316   0.84848   0.53511   -0.207954           
         C         C         0.76394   0.82544   0.54132   -0.082274           
         C         C         0.75938   0.80583   0.56527   -0.056406           
         C         C         0.73379   0.80861   0.58388   -0.229340           
         C         C         0.71296   0.83156   0.57765   -0.053893           
         H         H         0.67697   0.67078   0.77423   0.138522  
         H         H         0.65166   0.76468   0.71798   0.138091  
         H         H         0.70098   0.86844   0.54895   0.099602  
         H         H         0.69298   0.83383   0.59173   0.107146  
         H         H         0.78373   0.82268   0.52704   0.103896  
         H         H         0.77564   0.78815   0.56972   0.106697  
         B         B         0.72856   0.78718   0.61035   0.589164  
         O         O         0.61645   0.74848   0.76701   -0.337585           
         O         O         0.78825   0.62702   0.70474   -0.336115           
         C         C         0.68285   0.27417   0.78163   0.028542  
         C         C         0.69212   0.29940   0.76403   0.027573  
         C         C         0.64201   0.26573   0.74753   0.174407  
         C         C         0.65121   0.29028   0.73019   0.174006  
         C         C         0.67565   0.30739   0.73797   -0.234854           
         C         C         0.65712   0.25735   0.77300   -0.236999           
         C         C         0.71747   0.14883   0.94827   -0.080095           
         C         C         0.74389   0.15089   0.96537   -0.207793           
         C         C         0.76499   0.17331   0.95789   -0.080153           
         C         C         0.75990   0.19291   0.93410   -0.057708           
         C         C         0.73345   0.19075   0.91695   -0.230214           
         C         C         0.71235   0.16837   0.92439   -0.055417           
         H         H         0.68171   0.32661   0.72434   0.138982  
         H         H         0.64910   0.23840   0.78601   0.141781  
         H         H         0.70069   0.13193   0.95388   0.099161  
         H         H         0.69172   0.16657   0.91147   0.107645  
         H         H         0.78543   0.17558   0.97109   0.101408  
         H         H         0.77643   0.21012   0.92867   0.107296  
         B         B         0.72781   0.21235   0.89080   0.587628  
         O         O         0.61657   0.25308   0.73493   -0.338146           
         O         O         0.79089   0.37122   0.79537   -0.336630           
         C         C         0.18364   0.77212   0.28025   0.025205  
         C         C         0.19341   0.79727   0.26275   0.027657  
         C         C         0.14236   0.76489   0.24638   0.174353  
         C         C         0.15178   0.78961   0.22941   0.174447  
         C         C         0.17693   0.80582   0.23687   -0.232255           
         C         C         0.15766   0.75576   0.27149   -0.231637           
         C         C         0.21704   0.64561   0.44698   -0.083430           
         C         C         0.24263   0.64874   0.46517   -0.205965           
         C         C         0.26306   0.67204   0.45848   -0.083758           
         C         C         0.25809   0.69146   0.43451   -0.057726           
         C         C         0.23238   0.68836   0.41638   -0.227881           
         C         C         0.21198   0.66508   0.42300   -0.054037           
         H         H         0.18345   0.82482   0.22314   0.137313  
         H         H         0.14957   0.73653   0.28405   0.137142  
         H         H         0.20078   0.62800   0.45189   0.100445  
         H         H         0.19195   0.66242   0.40931   0.107566  
         H         H         0.28282   0.67525   0.47248   0.103229  
         H         H         0.27408   0.70935   0.42972   0.107428  
         B         B         0.22688   0.70997   0.39015   0.587186  
         O         O         0.11655   0.75294   0.23387   -0.338806           
         O         O         0.29243   0.86812   0.29561   -0.338855           
         C         C         0.31743   0.77303   0.71744   0.025500  
         C         C         0.30787   0.79843   0.73488   0.029565  
         C         C         0.35912   0.76650   0.75088   0.174049  
         C         C         0.35009   0.79180   0.76747   0.173607  
         C         C         0.32488   0.80783   0.76017   -0.232661           
         C         C         0.34349   0.75681   0.72607   -0.235797           
         C         C         0.28335   0.64578   0.54976   -0.083443           
         C         C         0.25795   0.64942   0.53145   -0.206676           
         C         C         0.23816   0.67333   0.53802   -0.083225           
         C         C         0.24338   0.69264   0.56221   -0.058082           
         C         C         0.26879   0.68893   0.58060   -0.228726           
         C         C         0.28873   0.66523   0.57389   -0.052865           
         H         H         0.31868   0.82721   0.77370   0.136981  
         H         H         0.35117   0.73717   0.71369   0.141100  
         H         H         0.29912   0.62766   0.54495   0.100740  
         H         H         0.30858   0.66214   0.58772   0.106996  
         H         H         0.21862   0.67697   0.52384   0.104536  
         H         H         0.22777   0.71091   0.56698   0.107416  
         B         B         0.27411   0.71025   0.60733   0.587999  
         O         O         0.38480   0.75457   0.76360   -0.338140           
         O         O         0.20614   0.86665   0.70602   -0.337850           
         C         C         0.81674   0.27375   0.21800   0.028290  
         C         C         0.80743   0.29895   0.23585   0.028392  
         C         C         0.85799   0.26573   0.25147   0.175242  
         C         C         0.84893   0.29039   0.26895   0.173917  
         C         C         0.82405   0.30708   0.26185   -0.238257           
         C         C         0.84249   0.25696   0.22633   -0.235713           
         C         C         0.78280   0.14677   0.05114   -0.080581           
         C         C         0.75837   0.15085   0.03166   -0.206284           
         C         C         0.73871   0.17510   0.03741   -0.081526           
         C         C         0.74305   0.19424   0.06194   -0.057756           
         C         C         0.76746   0.18998   0.08154   -0.228139           
         C         C         0.78733   0.16601   0.07562   -0.055275           
         H         H         0.81769   0.32586   0.27614   0.141691  
         H         H         0.85006   0.23753   0.21358   0.141018  
         H         H         0.79854   0.12848   0.04697   0.096265  
         H         H         0.80647   0.16255   0.09035   0.107331  
         H         H         0.71996   0.17916   0.02233   0.104083  
         H         H         0.72759   0.21280   0.06599   0.107756  
         B         B         0.77232   0.21104   0.10858   0.585758  
         O         O         0.88343   0.25304   0.26384   -0.338198           
         O         O         0.70766   0.36970   0.20603   -0.337530           
         C         C         0.81653   0.72711   0.28211   0.029139  
         C         C         0.80911   0.70056   0.26547   0.025574  
         C         C         0.85899   0.73505   0.24950   0.173803  
         C         C         0.85194   0.70884   0.23347   0.173666  
         C         C         0.82750   0.69147   0.24081   -0.234910           
         C         C         0.84203   0.74443   0.27368   -0.232472           
         C         C         0.78051   0.85332   0.44803   -0.082543           
         C         C         0.75671   0.84890   0.46846   -0.205422           
         C         C         0.73649   0.82511   0.46298   -0.083933           
         C         C         0.73977   0.80658   0.43779   -0.055413           
         C         C         0.76353   0.81117   0.41723   -0.229036           
         C         C         0.78388   0.83477   0.42282   -0.055169           
         H         H         0.82274   0.67138   0.22780   0.141532  
         H         H         0.84849   0.76459   0.28585   0.137280  
         H         H         0.79662   0.87128   0.45203   0.099057  
         H         H         0.80252   0.83839   0.40730   0.106986  
         H         H         0.71815   0.82095   0.47875   0.104662  
         H         H         0.72399   0.78828   0.43393   0.107278  
         B         B         0.76789   0.79048   0.38982   0.585053  
         O         O         0.88431   0.74827   0.23693   -0.338319           
         O         O         0.70871   0.62971   0.29394   -0.337255           
         C         C         0.31520   0.22821   0.78024   0.025545  
         C         C         0.30730   0.20178   0.76359   0.029976  
         C         C         0.35659   0.23664   0.74639   0.172613  
         C         C         0.34934   0.21030   0.73064   0.174913  
         C         C         0.32516   0.19281   0.73852   -0.235877           
         C         C         0.34017   0.24590   0.77097   -0.235485           
         C         C         0.28187   0.35362   0.94808   -0.083813           
         C         C         0.25768   0.34961   0.96817   -0.201827           
         C         C         0.23789   0.32539   0.96300   -0.085288           
         C         C         0.24194   0.30605   0.93852   -0.056118           
         C         C         0.26615   0.31016   0.91837   -0.227979           
         C         C         0.28605   0.33424   0.92361   -0.054210           
         H         H         0.32035   0.17261   0.72567   0.140627  
         H         H         0.34661   0.26626   0.78278   0.141723  
         H         H         0.29770   0.37192   0.95178   0.099593  
         H         H         0.30495   0.33762   0.90835   0.106605  
         H         H         0.21929   0.32149   0.97853   0.104344  
         H         H         0.22637   0.28753   0.93490   0.107319  
         B         B         0.27092   0.28901   0.89136   0.583801  
         O         O         0.38168   0.24983   0.73336   -0.337767           
         O         O         0.20763   0.13042   0.79403   -0.337058           
         C         C         0.21961   0.18262   0.22728   0.028274  
         C         C         0.23607   0.19056   0.20074   0.028037  
         C         C         0.25352   0.14152   0.23527   0.174784  
         C         C         0.26926   0.14885   0.20897   0.173708  
         C         C         0.26125   0.17300   0.19162   -0.232475           
         C         C         0.22893   0.15767   0.24472   -0.234799           
         C         C         0.05137   0.21608   0.35336   -0.083541           
         C         C         0.03191   0.24061   0.34911   -0.203426           
         C         C         0.03750   0.25990   0.32464   -0.085398           
         C         C         0.06187   0.25512   0.30538   -0.056732           
         C         C         0.08155   0.23074   0.30985   -0.228351           
         C         C         0.07579   0.21123   0.33408   -0.054394           
         H         H         0.27415   0.17812   0.17153   0.137637  
         H         H         0.21723   0.15111   0.26510   0.138590  
         H         H         0.04729   0.20056   0.37181   0.100211  
         H         H         0.09060   0.19213   0.33769   0.107613  
         H         H         0.02239   0.27870   0.32056   0.104677  
         H         H         0.06578   0.27030   0.28663   0.107119  
         B         B         0.10866   0.22587   0.28883   0.584389  
         O         O         0.26662   0.11665   0.24843   -0.337354           
         O         O         0.20751   0.29249   0.13256   -0.338679           
         C         C         0.71647   0.68209   0.72776   0.027137  
         C         C         0.73287   0.68963   0.70109   0.028615  
         C         C         0.75000   0.64073   0.73597   0.173656  
         C         C         0.76521   0.64739   0.70917   0.174085  
         C         C         0.75748   0.67149   0.69171   -0.236842           
         C         C         0.72575   0.65735   0.74555   -0.236027           
         C         C         0.54837   0.71779   0.85258   -0.082636           
         C         C         0.53185   0.74469   0.85123   -0.206602           
         C         C         0.54050   0.76649   0.82994   -0.080751           
         C         C         0.56489   0.76163   0.81077   -0.058388           
         C         C         0.58139   0.73463   0.81205   -0.229809           
         C         C         0.57274   0.71280   0.83327   -0.054567           
         H         H         0.77037   0.67628   0.67155   0.141590  
         H         H         0.71449   0.65153   0.76640   0.141547  
         H         H         0.54200   0.70063   0.86881   0.102291  
         H         H         0.58522   0.69179   0.83447   0.107433  
         H         H         0.52789   0.78741   0.82836   0.103807  
         H         H         0.57136   0.77876   0.79457   0.107417  
         B         B         0.60809   0.72930   0.79072   0.586335  
         O         O         0.76360   0.61633   0.74959   -0.337339           
         O         O         0.70581   0.79112   0.63201   -0.339652           
         C         C         0.78271   0.68288   0.27387   0.026380  
         C         C         0.76500   0.69156   0.29944   0.027449  
         C         C         0.74928   0.64140   0.26509   0.173567  
         C         C         0.73237   0.64956   0.29048   0.173623  
         C         C         0.73953   0.67416   0.30776   -0.231864           
         C         C         0.77437   0.65726   0.25659   -0.231484           
         C         C         0.94919   0.71827   0.14835   -0.083472           
         C         C         0.96736   0.74404   0.15060   -0.205308           
         C         C         0.96107   0.76494   0.17378   -0.081016           
         C         C         0.93725   0.76042   0.19376   -0.058986           
         C         C         0.91899   0.73462   0.19136   -0.228483           
         C         C         0.92540   0.71363   0.16838   -0.052713           
         H         H         0.72555   0.67986   0.32699   0.137088  
         H         H         0.78703   0.65005   0.23693   0.137257  
         H         H         0.95391   0.70161   0.13093   0.100776  
         H         H         0.91163   0.69351   0.16641   0.106638  
         H         H         0.97520   0.78477   0.17639   0.103574  
         H         H         0.93273   0.77681   0.21149   0.107681  
         B         B         0.89249   0.72925   0.21290   0.585985  
         O         O         0.73639   0.61642   0.25160   -0.338168           
         O         O         0.79094   0.79409   0.36840   -0.338630           
         C         C         0.28103   0.18410   0.77245   0.024310  
         C         C         0.26402   0.19250   0.79854   0.028243  
         C         C         0.24768   0.14235   0.76447   0.172396  
         C         C         0.23114   0.15048   0.79011   0.173128  
         C         C         0.23863   0.17513   0.80722   -0.230877           
         C         C         0.27223   0.15863   0.75515   -0.235002           
         C         C         0.44792   0.21884   0.64617   -0.082030           
         C         C         0.46689   0.24389   0.64967   -0.207776           
         C         C         0.46032   0.26461   0.67292   -0.081450           
         C         C         0.43554   0.26055   0.69178   -0.059597           
         C         C         0.41655   0.23544   0.68824   -0.226762           
         C         C         0.42318   0.21466   0.66512   -0.053846           
         H         H         0.22515   0.18083   0.82679   0.136364  
         H         H         0.28416   0.15195   0.73487   0.140647  
         H         H         0.45278   0.20237   0.62861   0.100078  
         H         H         0.40887   0.19505   0.66214   0.107263  
         H         H         0.47494   0.28394   0.67648   0.103861  
         H         H         0.43079   0.27677   0.70960   0.107451  
         B         B         0.38961   0.23057   0.70938   0.585678  
         O         O         0.23504   0.11693   0.75155   -0.337639           
         O         O         0.29388   0.29255   0.86979   -0.337934           
         C         C         0.71830   0.31704   0.77297   0.026925  
         C         C         0.73436   0.30937   0.79962   0.027063  
         C         C         0.75215   0.35833   0.76481   0.172802  
         C         C         0.76763   0.35102   0.79110   0.172136  
         C         C         0.75937   0.32705   0.80865   -0.231473           
         C         C         0.72780   0.34192   0.75535   -0.232148           
         C         C         0.55509   0.27969   0.64408   -0.081648           
         C         C         0.53360   0.25725   0.65000   -0.205645           
         C         C         0.53737   0.23936   0.67581   -0.084288           
         C         C         0.56186   0.24352   0.69480   -0.056073           
         C         C         0.58345   0.26591   0.68872   -0.230567           
         C         C         0.57954   0.28400   0.66313   -0.054833           
         H         H         0.77194   0.32224   0.82887   0.137397  
         H         H         0.71640   0.34821   0.73484   0.136990  
         H         H         0.55251   0.29410   0.62454   0.099461  
         H         H         0.59582   0.30162   0.65833   0.107554  
         H         H         0.52073   0.22222   0.68117   0.103778  
         H         H         0.56426   0.22953   0.71467   0.107704  
         B         B         0.61039   0.27077   0.70959   0.587295  
         O         O         0.76531   0.38332   0.75169   -0.337913           
         O         O         0.70451   0.20914   0.86981   -0.337552           
         C         C         0.21986   0.81449   0.27181   0.027029  
         C         C         0.23556   0.80651   0.29856   0.027166  
         C         C         0.25433   0.85538   0.26420   0.176266  
         C         C         0.26918   0.84800   0.29082   0.172398  
         C         C         0.26047   0.82403   0.30811   -0.231641           
         C         C         0.22989   0.83930   0.25436   -0.233122           
         C         C         0.05383   0.78166   0.14458   -0.084794           
         C         C         0.03357   0.75788   0.14936   -0.203390           
         C         C         0.03867   0.73845   0.17378   -0.083436           
         C         C         0.06326   0.74258   0.19263   -0.055971           
         C         C         0.08356   0.76645   0.18783   -0.232038           
         C         C         0.07839   0.78591   0.16350   -0.050791           
         H         H         0.27253   0.81915   0.32860   0.137751  
         H         H         0.21877   0.84574   0.23374   0.137139  
         H         H         0.05020   0.79713   0.12604   0.098508  
         H         H         0.09377   0.80453   0.15958   0.105902  
         H         H         0.02303   0.72010   0.17815   0.103725  
         H         H         0.06679   0.72734   0.21136   0.107742  
         B         B         0.11039   0.77114   0.20889   0.588920  
         O         O         0.26800   0.88027   0.25144   -0.341218           
         O         O         0.20306   0.70756   0.36961   -0.338074           
         C         C         0.28084   0.81490   0.72657   0.028259  
         C         C         0.26399   0.80597   0.70076   0.026167  
         C         C         0.24625   0.85540   0.73521   0.173337  
         C         C         0.22992   0.84695   0.70973   0.173772  
         C         C         0.23806   0.82257   0.69244   -0.232205           
         C         C         0.27127   0.83993   0.74414   -0.232915           
         C         C         0.44704   0.78481   0.85307   -0.081052           
         C         C         0.46596   0.75963   0.85004   -0.208627           
         C         C         0.46055   0.73936   0.82619   -0.082847           
         C         C         0.43677   0.74380   0.80645   -0.055841           
         C         C         0.41763   0.76886   0.80973   -0.229591           
         C         C         0.42327   0.78935   0.83328   -0.053114           
         H         H         0.22482   0.81661   0.67291   0.137392  
         H         H         0.28303   0.84718   0.76418   0.138180  
         H         H         0.45115   0.80112   0.87091   0.097704  
         H         H         0.40892   0.80900   0.83595   0.107047  
         H         H         0.47538   0.72014   0.82284   0.103418  
         H         H         0.43291   0.72787   0.78822   0.107283  
         B         B         0.39117   0.77343   0.78826   0.586346  
         O         O         0.23321   0.88053   0.74834   -0.338613           
         O         O         0.29849   0.70880   0.62724   -0.339418           
         C         C         0.78104   0.31634   0.22723   0.025089  
         C         C         0.76426   0.30788   0.20118   0.028275  
         C         C         0.74740   0.35781   0.23552   0.172337  
         C         C         0.73105   0.34962   0.20995   0.172929  
         C         C         0.73889   0.32518   0.19261   -0.230131           
         C         C         0.77214   0.34184   0.24452   -0.233800           
         C         C         0.94598   0.28040   0.35422   -0.081644           
         C         C         0.96576   0.25613   0.34958   -0.205841           
         C         C         0.96034   0.23663   0.32510   -0.083279           
         C         C         0.93600   0.24112   0.30606   -0.057426           
         C         C         0.91620   0.26545   0.31071   -0.227872           
         C         C         0.92162   0.28498   0.33515   -0.054934           
         H         H         0.72585   0.31979   0.17278   0.136943  
         H         H         0.78435   0.34898   0.26434   0.140324  
         H         H         0.94987   0.29599   0.37275   0.100202  
         H         H         0.90665   0.30398   0.33902   0.107027  
         H         H         0.97562   0.21796   0.32076   0.104230  
         H         H         0.93227   0.22580   0.28728   0.107405  
         B         B         0.88968   0.27071   0.28940   0.584586  
         O         O         0.73476   0.38332   0.24840   -0.336204           
         O         O         0.79657   0.20910   0.12867   -0.338036           
         C         C         0.46841   0.47561   0.43251   0.026893  
         C         C         0.48506   0.44932   0.44035   0.027282  
         C         C         0.50195   0.48368   0.39071   0.172346  
         C         C         0.51765   0.45742   0.39784   0.174363  
         C         C         0.50988   0.44018   0.42222   -0.235036           
         C         C         0.47759   0.49312   0.40739   -0.234813           
         C         C         0.30296   0.60212   0.46742   -0.084005           
         C         C         0.28272   0.59834   0.49153   -0.205505           
         C         C         0.28741   0.57418   0.51137   -0.083470           
         C         C         0.31153   0.55456   0.50737   -0.056710           
         C         C         0.33176   0.55833   0.48318   -0.230758           
         C         C         0.32706   0.58244   0.46329   -0.051707           
         H         H         0.52278   0.42016   0.42715   0.140808  
         H         H         0.46605   0.51364   0.40123   0.141066  
         H         H         0.29964   0.62046   0.45165   0.099836  
         H         H         0.34243   0.58561   0.44442   0.106027  
         H         H         0.27180   0.57055   0.52997   0.104084  
         H         H         0.31479   0.53601   0.52291   0.108256  
         B         B         0.35830   0.53677   0.47832   0.587589  
         O         O         0.51499   0.49683   0.36559   -0.338617           
         O         O         0.45890   0.38195   0.54379   -0.338734           
         C         C         0.96809   0.97420   0.93042   0.027586  
         C         C         0.98586   0.94937   0.94033   0.027224  
         C         C         0.00236   0.98147   0.88915   0.173820  
         C         C         0.01965   0.95703   0.89865   0.172380  
         C         C         0.01205   0.94089   0.92386   -0.232855           
         C         C         0.97689   0.99035   0.90431   -0.232478           
         C         C         0.80185   0.10266   0.96451   -0.080024           
         C         C         0.78399   0.10032   0.99061   -0.205716           
         C         C         0.79089   0.07748   0.01135   -0.083510           
         C         C         0.81500   0.05806   0.00641   -0.057203           
         C         C         0.83303   0.06056   0.98035   -0.229563           
         C         C         0.82590   0.08310   0.95942   -0.053269           
         H         H         0.02600   0.92216   0.93067   0.138462  
         H         H         0.96430   0.00949   0.89621   0.137439  
         H         H         0.79674   0.11985   0.94795   0.096826  
         H         H         0.83931   0.08520   0.93899   0.106809  
         H         H         0.77707   0.07475   0.03146   0.104398  
         H         H         0.81998   0.04062   0.02271   0.107701  
         B         B         0.85969   0.03913   0.97521   0.588434  
         O         O         0.01523   0.99384   0.86365   -0.337578           
         O         O         0.95325   0.88024   0.04086   -0.338301           
         C         C         0.03165   0.52232   0.93385   0.026824  
         C         C         0.01537   0.54891   0.94192   0.027857  
         C         C         0.99814   0.51444   0.89234   0.172435  
         C         C         0.98286   0.54102   0.89964   0.175748  
         C         C         0.99080   0.55834   0.92400   -0.237113           
         C         C         0.02237   0.50482   0.90870   -0.234527           
         C         C         0.19767   0.39486   0.96920   -0.077603           
         C         C         0.21672   0.39942   0.99398   -0.208459           
         C         C         0.21055   0.42384   0.01340   -0.081357           
         C         C         0.18622   0.44281   0.00834   -0.058852           
         C         C         0.16710   0.43818   0.98358   -0.228783           
         C         C         0.17331   0.41389   0.96406   -0.053424           
         H         H         0.97851   0.57885   0.92885   0.141073  
         H         H         0.03395   0.48436   0.90210   0.141283  
         H         H         0.20216   0.37639   0.95365   0.095990  
         H         H         0.15899   0.41004   0.94465   0.106857  
         H         H         0.22519   0.42824   0.03248   0.103808  
         H         H         0.18185   0.46156   0.02356   0.107344  
         B         B         0.14051   0.45950   0.97834   0.588687  
         O         O         0.98518   0.50146   0.86712   -0.338972           
         O         O         0.04680   0.62114   0.04091   -0.336629           
         C         C         0.53218   0.02101   0.43472   0.028030  
         C         C         0.51556   0.04736   0.44290   0.027625  
         C         C         0.49781   0.01199   0.39423   0.174014  
         C         C         0.48212   0.03826   0.40175   0.173285  
         C         C         0.49027   0.05602   0.42566   -0.236354           
         C         C         0.52265   0.00304   0.41001   -0.236270           
         C         C         0.69948   0.89595   0.46915   -0.081534           
         C         C         0.71733   0.89900   0.49501   -0.207205           
         C         C         0.71053   0.92243   0.51542   -0.082719           
         C         C         0.68670   0.94200   0.51022   -0.056920           
         C         C         0.66877   0.93883   0.48436   -0.230164           
         C         C         0.67556   0.91548   0.46393   -0.053671           
         H         H         0.47757   0.07625   0.43059   0.141104  
         H         H         0.53448   0.98278   0.40321   0.141491  
         H         H         0.70456   0.87827   0.45289   0.099386  
         H         H         0.66209   0.91283   0.44373   0.106715  
         H         H         0.72426   0.92556   0.53540   0.104028  
         H         H         0.68180   0.96000   0.52620   0.106863  
         B         B         0.64244   0.96029   0.47864   0.589317  
         O         O         0.48459   0.99860   0.36940   -0.337947           
         O         O         0.54696   0.12086   0.54083   -0.338241           
         C         C         0.96772   0.02393   0.56730   0.024648  
         C         C         0.98501   0.04931   0.55782   0.028420  
         C         C         0.00191   0.01649   0.60815   0.175279  
         C         C         0.01875   0.04139   0.59893   0.174828  
         C         C         0.01085   0.05803   0.57430   -0.232845           
         C         C         0.97657   0.00750   0.59311   -0.233279           
         C         C         0.80222   0.89558   0.53448   -0.083359           
         C         C         0.78359   0.89863   0.50923   -0.207004           
         C         C         0.78989   0.92194   0.48875   -0.082671           
         C         C         0.81403   0.94136   0.49323   -0.057832           
         C         C         0.83270   0.93824   0.51854   -0.228841           
         C         C         0.82639   0.91503   0.53905   -0.053606           
         H         H         0.02426   0.07741   0.56817   0.137228  
         H         H         0.96395   0.98827   0.60114   0.137652  
         H         H         0.79757   0.87804   0.55085   0.100500  
         H         H         0.84051   0.91247   0.55879   0.106963  
         H         H         0.77544   0.92511   0.46933   0.103934  
         H         H         0.81849   0.95924   0.47717   0.107767  
         B         B         0.85902   0.95993   0.52371   0.587133  
         O         O         0.01492   0.00424   0.63349   -0.340051           
         O         O         0.95298   0.11960   0.45854   -0.339071           
         C         C         0.46797   0.52496   0.06615   0.027268  
         C         C         0.48484   0.55104   0.05790   0.028132  
         C         C         0.50208   0.51629   0.10687   0.172868  
         C         C         0.51856   0.54184   0.09879   0.174799  
         C         C         0.51070   0.55923   0.07466   -0.233648           
         C         C         0.47714   0.50740   0.09112   -0.235202           
         C         C         0.30207   0.39846   0.03307   -0.083025           
         C         C         0.28330   0.40089   0.00784   -0.205014           
         C         C         0.28957   0.42369   0.98678   -0.084259           
         C         C         0.31390   0.44306   0.99057   -0.055640           
         C         C         0.33277   0.44054   0.01581   -0.230395           
         C         C         0.32632   0.41797   0.03702   -0.053541           
         H         H         0.52435   0.57854   0.06881   0.136988  
         H         H         0.46525   0.48722   0.09781   0.141121  
         H         H         0.29752   0.38128   0.04985   0.100840  
         H         H         0.34045   0.41583   0.05678   0.106909  
         H         H         0.27503   0.42643   0.96735   0.104597  
         H         H         0.31836   0.46046   0.97400   0.106810  
         B         B         0.35963   0.46177   0.02038   0.587428  
         O         O         0.51515   0.50306   0.13174   -0.336875           
         O         O         0.45452   0.62256   0.95903   -0.338489           
         C         C         0.53170   0.98002   0.06662   0.026271  
         C         C         0.51499   0.95384   0.05827   0.025319  
         C         C         0.49877   0.98740   0.10900   0.173179  
         C         C         0.48235   0.96184   0.10071   0.172482  
         C         C         0.48972   0.94502   0.07577   -0.230539           
         C         C         0.52313   0.99690   0.09253   -0.232267           
         C         C         0.69786   0.10585   0.02988   -0.082770           
         C         C         0.71708   0.10167   0.00499   -0.205773           
         C         C         0.70986   0.07909   0.98385   -0.081829           
         C         C         0.68427   0.06139   0.98742   -0.056075           
         C         C         0.66516   0.06549   0.01250   -0.230905           
         C         C         0.67233   0.08804   0.03359   -0.053987           
         H         H         0.47620   0.92560   0.06997   0.137109  
         H         H         0.53512   0.01698   0.09944   0.137428  
         H         H         0.70308   0.12301   0.04658   0.100254  
         H         H         0.65777   0.09134   0.05308   0.107215  
         H         H         0.72460   0.07524   0.96455   0.103470  
         H         H         0.67906   0.04409   0.97083   0.107753  
         B         B         0.63794   0.04497   0.01762   0.586421  
         O         O         0.48629   -0.00009  0.13481   -0.337069           
         O         O         0.54688   0.88180   0.95907   -0.337634           
         C         C         0.03231   0.47531   0.56734   0.028322  
         C         C         0.01417   0.45055   0.55774   0.026987  
         C         C         0.99860   0.48388   0.60887   0.173272  
         C         C         0.98041   0.46015   0.59907   0.174568  
         C         C         0.98760   0.44327   0.57406   -0.235217           
         C         C         0.02425   0.49184   0.59361   -0.233774           
         C         C         0.19820   0.60245   0.53192   -0.084313           
         C         C         0.21645   0.59946   0.50614   -0.203694           
         C         C         0.20943   0.57661   0.48522   -0.084602           
         C         C         0.18494   0.55763   0.48977   -0.055581           
         C         C         0.16665   0.56064   0.51562   -0.229913           
         C         C         0.17374   0.58336   0.53661   -0.053617           
         H         H         0.97293   0.42504   0.56723   0.141867  
         H         H         0.03764   0.51045   0.60185   0.138227  
         H         H         0.20335   0.61973   0.54856   0.100917  
         H         H         0.15997   0.58588   0.55678   0.107029  
         H         H         0.22349   0.57352   0.46530   0.104215  
         H         H         0.17987   0.54016   0.47333   0.107603  
         B         B         0.14001   0.53928   0.52080   0.585482  
         O         O         0.98623   0.49671   0.63459   -0.337732           
         O         O         0.04544   0.37907   0.45758   -0.338139           
         C         C         0.47683   0.43227   0.46720   0.026545  
         C         C         0.45178   0.44153   0.48531   0.028496  
         C         C         0.48584   0.39164   0.50135   0.175378  
         C         C         0.46168   0.40101   0.51937   0.173335  
         C         C         0.44455   0.42552   0.51200   -0.232281           
         C         C         0.49394   0.40675   0.47569   -0.236009           
         C         C         0.60279   0.46765   0.29958   -0.081491           
         C         C         0.59969   0.49327   0.28141   -0.206665           
         C         C         0.57638   0.51367   0.28832   -0.082713           
         C         C         0.55712   0.50882   0.31266   -0.056930           
         C         C         0.56029   0.48317   0.33088   -0.229328           
         C         C         0.58343   0.46266   0.32387   -0.054113           
         H         H         0.42606   0.43211   0.52657   0.137378  
         H         H         0.51312   0.39905   0.46264   0.140690  
         H         H         0.62037   0.45136   0.29452   0.099534  
         H         H         0.58607   0.44262   0.33756   0.107478  
         H         H         0.57313   0.53340   0.27427   0.103808  
         H         H         0.53930   0.52487   0.31763   0.106912  
         B         B         0.53895   0.47773   0.35759   0.586763  
         O         O         0.49870   0.36629   0.51378   -0.339108           
         O         O         0.37895   0.53946   0.45447   -0.338878           
         C         C         0.97680   0.93266   0.96715   0.025924  
         C         C         0.95053   0.94147   0.98367   0.027331  
         C         C         0.98419   0.89197   0.00173   0.172326  
         C         C         0.95797   0.90006   0.01733   0.174646  
         C         C         0.94099   0.92435   0.00891   -0.234863           
         C         C         0.99385   0.90752   0.97685   -0.232158           
         C         C         0.10623   0.96812   0.80112   -0.080867           
         C         C         0.10112   0.99226   0.78145   -0.207092           
         C         C         0.07630   0.01113   0.78720   -0.084020           
         C         C         0.05734   0.00609   0.81171   -0.057412           
         C         C         0.06243   0.98183   0.83134   -0.229130           
         C         C         0.08723   0.96296   0.82565   -0.053257           
         H         H         0.92062   0.92977   0.02130   0.141238  
         H         H         0.01402   0.90025   0.96516   0.137234  
         H         H         0.12505   0.95303   0.79695   0.099437  
         H         H         0.09149   0.94407   0.84051   0.106879  
         H         H         0.07160   0.02970   0.77205   0.103971  
         H         H         0.03825   0.02088   0.81577   0.107233  
         B         B         0.04087   0.97621   0.85780   0.586069  
         O         O         0.99686   0.86697   0.01515   -0.336836           
         O         O         0.87891   0.03948   0.94999   -0.338980           
         C         C         0.52409   0.93606   0.03204   0.028587  
         C         C         0.54903   0.94551   0.01401   0.029535  
         C         C         0.51777   0.89312   -0.00023  0.173442  
         C         C         0.54241   0.90217   0.98234   0.173309  
         C         C         0.55819   0.92788   0.98884   -0.236675           
         C         C         0.50835   0.90930   0.02445   -0.237938           
         C         C         0.39854   0.96767   0.19932   -0.081922           
         C         C         0.40105   0.99266   0.21865   -0.207352           
         C         C         0.42395   0.01382   0.21285   -0.081818           
         C         C         0.44340   0.01031   0.18840   -0.056829           
         C         C         0.44069   0.98536   0.16895   -0.231295           
         C         C         0.41803   0.96406   0.17488   -0.052408           
         H         H         0.57722   0.93408   0.97487   0.141277  
         H         H         0.48932   0.90133   0.03748   0.141893  
         H         H         0.38127   0.95086   0.20358   0.098868  
         H         H         0.41585   0.94452   0.16019   0.106879  
         H         H         0.42667   0.03313   0.22776   0.104335  
         H         H         0.46092   0.02687   0.18419   0.107219  
         B         B         0.46187   0.98114   0.14197   0.586946  
         O         O         0.50590   0.86692   0.98782   -0.336707           
         O         O         0.61823   0.04701   0.04241   -0.338937           
         C         C         0.02313   0.43286   0.53132   0.026669  
         C         C         0.04913   0.44136   0.51425   0.027757  
         C         C         0.01567   0.39098   0.49767   0.171377  
         C         C         0.04117   0.39925   0.48109   0.174781  
         C         C         0.05799   0.42400   0.48875   -0.233303           
         C         C         0.00637   0.40705   0.52257   -0.232474           
         C         C         0.89419   0.47102   0.69601   -0.081497           
         C         C         0.89976   0.49394   0.71717   -0.209182           
         C         C         0.92500   0.51258   0.71272   -0.081587           
         C         C         0.94398   0.50846   0.68799   -0.056602           
         C         C         0.93848   0.48540   0.66686   -0.229625           
         C         C         0.91322   0.46680   0.67128   -0.054347           
         H         H         0.07761   0.42970   0.47540   0.137660  
         H         H         0.98668   0.39976   0.53502   0.137509  
         H         H         0.87500   0.45615   0.69913   0.100305  
         H         H         0.90870   0.44883   0.65523   0.106850  
         H         H         0.92996   0.53022   0.72905   0.104174  
         H         H         0.96340   0.52304   0.68501   0.107140  
         B         B         0.95991   0.48006   0.64015   0.586578  
         O         O         0.00312   0.36539   0.48492   -0.338453           
         O         O         0.12006   0.54101   0.54541   -0.336977           
         C         C         0.02423   0.56648   0.96831   0.029226  
         C         C         0.05042   0.55827   0.98487   0.024637  
         C         C         0.01638   0.60818   0.00202   0.173059  
         C         C         0.04246   0.60066   0.01773   0.173703  
         C         C         0.05953   0.57609   0.00986   -0.231632           
         C         C         0.00688   0.59172   0.97764   -0.235129           
         C         C         0.89759   0.53268   0.80286   -0.081365           
         C         C         0.90033   0.50748   0.78378   -0.205227           
         C         C         0.92361   0.48680   0.78944   -0.084344           
         C         C         0.94314   0.49091   0.81351   -0.056590           
         C         C         0.94027   0.51609   0.83269   -0.229800           
         C         C         0.91723   0.53694   0.82688   -0.054553           
         H         H         0.07936   0.57075   0.02283   0.137814  
         H         H         0.98642   0.59814   0.96624   0.140282  
         H         H         0.88010   0.54923   0.79871   0.099587  
         H         H         0.91487   0.55664   0.84133   0.107239  
         H         H         0.92662   0.46747   0.77457   0.104255  
         H         H         0.96092   0.47463   0.81749   0.107162  
         B         B         0.96171   0.52094   0.85922   0.588960  
         O         O         0.00328   0.63333   0.01512   -0.337000           
         O         O         0.11886   0.45598   0.95574   -0.338768           
         C         C         0.52466   0.06545   0.46879   0.027385  
         C         C         0.55131   0.05793   0.48488   0.026033  
         C         C         0.51649   0.10720   0.50227   0.174919  
         C         C         0.54289   0.10025   0.51771   0.171502  
         C         C         0.56039   0.07603   0.50969   -0.231591           
         C         C         0.50699   0.09047   0.47809   -0.235270           
         C         C         0.39740   0.03050   0.30463   -0.082499           
         C         C         0.40013   0.00542   0.28541   -0.206141           
         C         C         0.42284   0.98424   0.29150   -0.081079           
         C         C         0.44199   0.98787   0.31595   -0.059642           
         C         C         0.43925   0.01304   0.33517   -0.228413           
         C         C         0.41663   0.03428   0.32906   -0.054282           
         H         H         0.58049   0.07117   0.52242   0.137497  
         H         H         0.48631   0.09648   0.46687   0.140791  
         H         H         0.38024   0.04732   0.30027   0.099507  
         H         H         0.41428   0.05394   0.34358   0.106837  
         H         H         0.42569   0.96482   0.27673   0.104048  
         H         H         0.45937   0.97124   0.32024   0.108487  
         B         B         0.46064   0.01774   0.36179   0.585713  
         O         O         0.50311   0.13216   0.51534   -0.338231           
         O         O         0.62090   0.95630   0.45597   -0.337608           
         C         C         0.97599   0.06631   0.53134   0.028084  
         C         C         0.94942   0.05809   0.51535   0.027644  
         C         C         0.98391   0.10705   0.49695   0.173541  
         C         C         0.95746   0.09952   0.48181   0.174032  
         C         C         0.94022   0.07532   0.49017   -0.234354           
         C         C         0.99357   0.09107   0.52140   -0.232875           
         C         C         0.10511   0.03190   0.69562   -0.078353           
         C         C         0.10091   0.00729   0.71496   -0.207103           
         C         C         0.07657   0.98778   0.70939   -0.082309           
         C         C         0.05732   0.99256   0.68527   -0.058243           
         C         C         0.06161   0.01718   0.66586   -0.229309           
         C         C         0.08580   0.03680   0.67149   -0.054164           
         H         H         0.92020   0.06986   0.47750   0.138753  
         H         H         0.01426   0.09751   0.53242   0.137903  
         H         H         0.12351   0.04750   0.69964   0.096806  
         H         H         0.08927   0.05611   0.65693   0.107240  
         H         H         0.07250   0.96886   0.72434   0.103657  
         H         H         0.03861   0.97731   0.68139   0.108047  
         B         B         0.04007   0.02235   0.63950   0.588414  
         O         O         0.99697   0.13183   0.48340   -0.339133           
         O         O         0.88013   0.95748   0.54698   -0.337947           
         C         C         0.47554   0.56908   0.03222   0.026301  
         C         C         0.45082   0.55953   0.01409   0.030184  
         C         C         0.48221   0.61212   0.00043   0.174282  
         C         C         0.45839   0.60248   0.98237   0.173095  
         C         C         0.44245   0.57679   0.98866   -0.233437           
         C         C         0.49108   0.59608   0.02515   -0.236580           
         C         C         0.60320   0.53265   0.19611   -0.079718           
         C         C         0.60002   0.50739   0.21480   -0.207510           
         C         C         0.57695   0.48665   0.20828   -0.081545           
         C         C         0.55793   0.49087   0.18387   -0.058587           
         C         C         0.56120   0.51616   0.16514   -0.228068           
         C         C         0.58413   0.53696   0.17170   -0.054714           
         H         H         0.42392   0.57036   0.97429   0.138009  
         H         H         0.50955   0.60423   0.03871   0.141779  
         H         H         0.62058   0.54917   0.20090   0.097969  
         H         H         0.58676   0.55673   0.15758   0.106784  
         H         H         0.57367   0.46719   0.22271   0.103742  
         H         H         0.54023   0.47463   0.17923   0.108155  
         B         B         0.53993   0.52139   0.13863   0.585676  
         O         O         0.49387   0.63866   0.98906   -0.337854           
         O         O         0.37894   0.46058   0.04529   -0.337228           
         C         C         0.43364   0.46730   0.47628   0.026075  
         C         C         0.44196   0.48421   0.45023   0.027746  
         C         C         0.39122   0.49991   0.48407   0.171894  
         C         C         0.39937   0.51641   0.45856   0.174386  
         C         C         0.42412   0.50912   0.44144   -0.232362           
         C         C         0.40768   0.47551   0.49321   -0.235764           
         C         C         0.47054   0.30418   0.60439   -0.082191           
         C         C         0.49418   0.28367   0.59972   -0.205036           
         C         C         0.51382   0.28851   0.57522   -0.086216           
         C         C         0.51014   0.31308   0.55624   -0.055872           
         C         C         0.48651   0.33366   0.56101   -0.227973           
         C         C         0.46676   0.32875   0.58538   -0.055251           
         H         H         0.42934   0.52225   0.42162   0.136987  
         H         H         0.40051   0.46297   0.51284   0.141818  
         H         H         0.45478   0.30071   0.62287   0.099225  
         H         H         0.44822   0.34427   0.58923   0.107697  
         H         H         0.53195   0.27262   0.57078   0.104041  
         H         H         0.52551   0.31637   0.53741   0.107158  
         B         B         0.48167   0.36039   0.53984   0.587494  
         O         O         0.36543   0.51219   0.49678   -0.337442           
         O         O         0.54083   0.45315   0.37730   -0.337812           
         C         C         0.93338   0.96784   0.97442   0.026881  
         C         C         0.94137   0.98333   0.94742   0.025910  
         C         C         0.89253   0.00236   0.98210   0.174375  
         C         C         0.89938   0.01657   0.95488   0.172400  
         C         C         0.92351   0.00784   0.93750   -0.229460           
         C         C         0.90877   0.97820   0.99216   -0.232948           
         C         C         0.96707   0.80258   0.10319   -0.080566           
         C         C         0.99271   0.78433   0.09993   -0.204790           
         C         C         0.01335   0.79125   0.07679   -0.084192           
         C         C         0.00862   0.81559   0.05779   -0.058329           
         C         C         0.98284   0.83379   0.06098   -0.227387           
         C         C         0.96220   0.82686   0.08405   -0.053864           
         H         H         0.92841   0.01967   0.91678   0.137279  
         H         H         0.90276   0.96779   0.01336   0.137834  
         H         H         0.95068   0.79756   0.12072   0.097138  
         H         H         0.94213   0.84059   0.08681   0.106792  
         H         H         0.03318   0.77724   0.07350   0.105045  
         H         H         0.02485   0.82059   0.04011   0.107974  
         B         B         0.97757   0.86007   0.03934   0.586136  
         O         O         0.86803   0.01641   0.99540   -0.338624           
         O         O         0.04378   0.95315   0.87912   -0.336890           
         C         C         0.93196   0.03193   0.52480   0.028313  
         C         C         0.94112   0.01493   0.55040   0.028027  
         C         C         0.89055   0.99804   0.51784   0.173667  
         C         C         0.89957   0.98142   0.54286   0.175542  
         C         C         0.92433   0.98928   0.55935   -0.236754           
         C         C         0.90605   0.02303   0.50846   -0.234760           
         C         C         0.96644   0.19674   0.39623   -0.083759           
         C         C         0.99142   0.21578   0.39967   -0.204663           
         C         C         0.01181   0.20960   0.42300   -0.083514           
         C         C         0.00757   0.18513   0.44200   -0.057628           
         C         C         0.98251   0.16608   0.43853   -0.230177           
         C         C         0.96200   0.17235   0.41538   -0.052931           
         H         H         0.93052   0.97582   0.57860   0.141858  
         H         H         0.89830   0.03525   0.48896   0.138559  
         H         H         0.95027   0.20118   0.37852   0.101325  
         H         H         0.94244   0.15795   0.41252   0.107001  
         H         H         0.03110   0.22427   0.42641   0.103562  
         H         H         0.02359   0.18066   0.45985   0.108055  
         B         B         0.97754   0.13943   0.45981   0.588652  
         O         O         0.86515   0.98500   0.50559   -0.338765           
         O         O         0.04267   0.04550   0.61825   -0.338475           
         C         C         0.43386   0.53255   0.02221   0.025843  
         C         C         0.44163   0.51624   0.04871   0.026487  
         C         C         0.39295   0.49827   0.01379   0.173877  
         C         C         0.39968   0.48330   0.04055   0.172036  
         C         C         0.42370   0.49150   0.05800   -0.230846           
         C         C         0.40925   0.52278   0.00440   -0.232156           
         C         C         0.46913   0.69764   0.89553   -0.080361           
         C         C         0.49073   0.71993   0.90163   -0.207917           
         C         C         0.50755   0.71754   0.92829   -0.082947           
         C         C         0.50319   0.69362   0.94799   -0.055026           
         C         C         0.48164   0.67124   0.94184   -0.228909           
         C         C         0.46465   0.67376   0.91530   -0.056541           
         H         H         0.42840   0.47911   0.07838   0.137782  
         H         H         0.40293   0.53426   0.98393   0.137068  
         H         H         0.45556   0.69914   0.87528   0.098745  
         H         H         0.44779   0.65677   0.91026   0.107144  
         H         H         0.52400   0.73484   0.93374   0.104173  
         H         H         0.51645   0.69226   0.96843   0.107491  
         B         B         0.47672   0.64463   0.96325   0.587367  
         O         O         0.36817   0.48485   0.00053   -0.338538           
         O         O         0.54243   0.54542   0.11831   -0.338114           
         C         C         0.56534   0.97291   0.02182   0.024354  
         C         C         0.55738   0.98947   0.04835   0.029667  
         C         C         0.60538   0.00778   0.01223   0.170752  
         C         C         0.59816   0.02352   0.03865   0.175903  
         C         C         0.57454   0.01510   0.05677   -0.235018           
         C         C         0.58954   0.98282   0.00340   -0.234151           
         C         C         0.53326   0.80181   0.89917   -0.084193           
         C         C         0.50597   0.78594   0.90061   -0.205120           
         C         C         0.48463   0.79465   0.92255   -0.082266           
         C         C         0.49042   0.81836   0.94229   -0.059036           
         C         C         0.51776   0.83429   0.94073   -0.227367           
         C         C         0.53903   0.82569   0.91878   -0.055474           
         H         H         0.56974   0.02782   0.07710   0.138402  
         H         H         0.59587   0.97108   0.98290   0.140567  
         H         H         0.55022   0.79524   0.88266   0.099672  
         H         H         0.56028   0.83769   0.91731   0.107036  
         H         H         0.46344   0.78251   0.92439   0.104866  
         H         H         0.47371   0.82476   0.95912   0.107438  
         B         B         0.52372   0.86056   0.96238   0.587929  
         O         O         0.63007   0.02100   0.99854   -0.335713           
         O         O         0.45914   0.95752   0.12106   -0.337304           
         C         C         0.06664   0.46773   0.52313   0.026960  
         C         C         0.05869   0.48408   0.54979   0.027043  
         C         C         0.10772   0.50180   0.51489   0.173459  
         C         C         0.10017   0.51747   0.54126   0.175181  
         C         C         0.07612   0.50928   0.55883   -0.233453           
         C         C         0.09162   0.47719   0.50547   -0.231763           
         C         C         0.03142   0.30137   0.39513   -0.082396           
         C         C         0.00672   0.28207   0.39937   -0.205800           
         C         C         0.98699   0.28811   0.42359   -0.083133           
         C         C         0.99168   0.31254   0.44274   -0.058196           
         C         C         0.01650   0.33178   0.43856   -0.228074           
         C         C         0.03628   0.32578   0.41439   -0.054527           
         H         H         0.07086   0.52221   0.57892   0.137817  
         H         H         0.09813   0.46568   0.48489   0.137687  
         H         H         0.04712   0.29707   0.37674   0.100465  
         H         H         0.05564   0.34033   0.41083   0.107492  
         H         H         0.96794   0.27327   0.42764   0.103417  
         H         H         0.97617   0.31681   0.46129   0.107965  
         B         B         0.02168   0.35841   0.46010   0.587235  
         O         O         0.13254   0.51519   0.50161   -0.338575           
         O         O         0.95598   0.45746   0.61828   -0.338499           
         C         C         0.06755   0.53153   0.97612   0.027087  
         C         C         0.05801   0.51353   0.95116   0.026703  
         C         C         0.10899   0.49779   0.98368   0.174168  
         C         C         0.09952   0.48012   0.95939   0.175497  
         C         C         0.07453   0.48735   0.94299   -0.233331           
         C         C         0.09359   0.52316   0.99247   -0.232177           
         C         C         0.03197   0.69841   0.10356   -0.082788           
         C         C         0.00727   0.71768   0.09952   -0.206294           
         C         C         0.98766   0.71169   0.07543   -0.082304           
         C         C         0.99246   0.68727   0.05623   -0.058566           
         C         C         0.01724   0.66801   0.06026   -0.228710           
         C         C         0.03694   0.67404   0.08423   -0.053879           
         H         H         0.06809   0.47309   0.92426   0.137287  
         H         H         0.10148   0.53616   0.01153   0.138254  
         H         H         0.04760   0.70270   0.12184   0.099957  
         H         H         0.05626   0.65948   0.08763   0.107201  
         H         H         0.96863   0.72652   0.07151   0.104095  
         H         H         0.97704   0.68297   0.03779   0.108001  
         B         B         0.02239   0.64112   0.03904   0.584817  
         O         O         0.13471   0.48532   0.99578   -0.340117           
         O         O         0.96017   0.54563   0.87902   -0.339372           
         C         C         0.56884   0.03152   0.47597   0.029047  
         C         C         0.55911   0.01297   0.45149   0.025312  
         C         C         0.61077   0.99848   0.48333   0.174747  
         C         C         0.60126   0.98028   0.45942   0.171666  
         C         C         0.57590   0.98695   0.44333   -0.231858           
         C         C         0.59532   0.02387   0.49187   -0.233568           
         C         C         0.53209   0.19760   0.60360   -0.080712           
         C         C         0.50739   0.21690   0.59973   -0.206297           
         C         C         0.48751   0.21087   0.57586   -0.084463           
         C         C         0.49206   0.18638   0.55668   -0.057951           
         C         C         0.51689   0.16713   0.56050   -0.229809           
         C         C         0.53681   0.17318   0.58428   -0.054181           
         H         H         0.56919   0.97235   0.42497   0.137294  
         H         H         0.60351   0.03735   0.51048   0.138029  
         H         H         0.54784   0.20190   0.62176   0.101001  
         H         H         0.55615   0.15861   0.58751   0.107120  
         H         H         0.46841   0.22568   0.57214   0.104838  
         H         H         0.47646   0.18209   0.53839   0.108056  
         B         B         0.52220   0.14038   0.53913   0.588256  
         O         O         0.63654   0.98638   0.49562   -0.339186           
         O         O         0.45889   0.04236   0.38170   -0.337363           
         Si        Si        0.37544   0.99906   0.25181   0.682763  
         Si        Si        0.12595   -0.00025  0.74797   0.680146  
         Si        Si        0.62487   0.50064   0.24813   0.682331  
         Si        Si        0.87493   0.50062   0.75085   0.682722  
         Si        Si        0.25047   0.37508   0.00135   0.679150  
         Si        Si        0.75110   0.12573   0.99832   0.683369  
         Si        Si        0.24992   0.62405   0.49853   0.681825  
         Si        Si        0.75030   0.87373   0.50216   0.683778  
         Si        Si        0.99892   0.24871   0.37444   0.679263  
         Si        Si        0.00010   0.75104   0.12472   0.680272  
         Si        Si        0.50048   0.25038   0.62479   0.681964  
         Si        Si        0.49836   0.75250   0.87590   0.682621 

