
##########################################################################
#               Crystallographic Information Format file
#               Produced by PyCifRW module
#
#  This is a CIF file.  CIF has been adopted by the International
#  Union of Crystallography as the standard for data archiving and
#  transmission.
#
#  For information on this file format, follow the CIF links at
#  http://www.iucr.org
##########################################################################

data_image0

_cell_length_a                          30.2638
_cell_length_b                          30.0914
_cell_length_c                          30.082
_cell_angle_alpha                       90.1298
_cell_angle_beta                        90.4962
_cell_angle_gamma                       90.2898
_symmetry_space_group_name_H-M          'P 1'
_space_group_name_Hall                  'P 1'
loop_
  _atom_site_type_symbol
  _atom_site_label
  _atom_site_fract_x
  _atom_site_fract_y
  _atom_site_fract_z
  _atom_site_charge
         C         C         0.68743   0.60919   0.23650   -0.045619           
         C         C         0.65782   0.53636   0.25487   0.080214  
         B         B         0.75164   0.64579   0.27976   0.772766  
         O         O         0.74967   0.68299   0.25272   -0.713290           
         C         C         0.69024   0.53307   0.28857   -0.147728           
         C         C         0.71912   0.60665   0.27076   -0.259563           
         C         C         0.71999   0.56763   0.29657   -0.050435           
         O         O         0.78157   0.64288   0.31469   -0.712040           
         C         C         0.73594   0.75905   0.17570   -0.394858           
         C         C         0.87312   0.59124   0.33939   -0.394726           
         H         H         0.71501   0.77929   0.15362   0.121774  
         H         H         0.77056   0.76525   0.16680   0.121644  
         H         H         0.72849   0.72393   0.16876   0.125998  
         H         H         0.89394   0.56963   0.36025   0.120237  
         H         H         0.84310   0.57248   0.33045   0.124497  
         H         H         0.89123   0.59818   0.30867   0.123870  
         H         H         0.69204   0.50286   0.30830   0.112603  
         H         H         0.63337   0.57771   0.20166   0.109155  
         H         H         0.74454   0.56460   0.32305   0.103002  
         H         H         0.68652   0.63871   0.21566   0.104497  
         C         C         0.48213   0.17209   0.59375   -0.161688           
         C         C         0.18723   0.11406   0.74079   -0.045605           
         C         C         0.15604   0.04206   0.75994   0.079860  
         B         B         0.25405   0.14872   0.78173   0.775211  
         O         O         0.25207   0.18573   0.75451   -0.714850           
         C         C         0.18845   0.03853   0.79364   -0.146898           
         C         C         0.21953   0.11087   0.77446   -0.257972           
         C         C         0.21933   0.07227   0.80089   -0.048923           
         O         O         0.28580   0.14505   0.81492   -0.712160           
         C         C         0.23729   0.25984   0.67674   -0.396828           
         C         C         0.37767   0.09352   0.83997   -0.398202           
         H         H         0.21657   0.28043   0.65477   0.121942  
         H         H         0.27178   0.26404   0.66638   0.122139  
         H         H         0.22791   0.22494   0.67120   0.126452  
         H         H         0.39848   0.07208   0.86103   0.120292  
         H         H         0.34779   0.07459   0.83093   0.125085  
         H         H         0.39595   0.10044   0.80934   0.125263  
         H         H         0.18967   0.00852   0.81371   0.109690  
         H         H         0.13193   0.08371   0.70681   0.108656  
         H         H         0.24404   0.06878   0.82715   0.102878  
         H         H         0.18680   0.14341   0.71970   0.103088  
         C         C         0.98335   0.67100   0.09345   -0.160662           
         C         C         0.81398   0.38591   0.74100   -0.045890           
         C         C         0.84393   0.45902   0.75865   0.079725  
         B         B         0.74972   0.35001   0.78340   0.774633  
         O         O         0.75241   0.31266   0.75658   -0.713560           
         C         C         0.81235   0.46247   0.79262   -0.145494           
         C         C         0.78274   0.38886   0.77515   -0.258803           
         C         C         0.78258   0.42809   0.80083   -0.051656           
         O         O         0.71871   0.35304   0.81687   -0.713875           
         C         C         0.76346   0.23601   0.67928   -0.395190           
         C         C         0.63097   0.40942   0.84244   -0.393845           
         H         H         0.78333   0.21407   0.65807   0.119916  
         H         H         0.72882   0.23291   0.66844   0.122460  
         H         H         0.77419   0.27037   0.67318   0.125843  
         H         H         0.61069   0.43124   0.86336   0.121503  
         H         H         0.66231   0.42674   0.83606   0.121863  
         H         H         0.61362   0.40507   0.81049   0.124772  
         H         H         0.81100   0.49284   0.81226   0.109491  
         H         H         0.86737   0.41702   0.70573   0.108722  
         H         H         0.75850   0.43155   0.82728   0.105290  
         H         H         0.81447   0.35619   0.72032   0.104372  
         C         C         0.01710   0.82768   0.09605   -0.162633           
         C         C         0.31083   0.88971   0.23927   -0.046603           
         C         C         0.34253   0.96206   0.25710   0.078120  
         B         B         0.24639   0.85501   0.28276   0.775455  
         O         O         0.24785   0.81713   0.25652   -0.714630           
         C         C         0.31110   0.96620   0.29111   -0.146961           
         C         C         0.27992   0.89322   0.27368   -0.259697           
         C         C         0.28070   0.93243   0.29939   -0.049313           
         O         O         0.21607   0.85933   0.31670   -0.711863           
         C         C         0.25848   0.73935   0.18095   -0.394445           
         C         C         0.12614   0.91246   0.34256   -0.396160           
         H         H         0.27851   0.71826   0.15908   0.121444  
         H         H         0.22359   0.73409   0.17192   0.121988  
         H         H         0.26684   0.77416   0.17379   0.125286  
         H         H         0.10633   0.93472   0.36349   0.121080  
         H         H         0.15595   0.93076   0.33265   0.124209  
         H         H         0.10675   0.90502   0.31239   0.124769  
         H         H         0.31050   0.99656   0.31082   0.112204  
         H         H         0.36468   0.91974   0.20381   0.108711  
         H         H         0.25689   0.93629   0.32603   0.102683  
         H         H         0.31063   0.86001   0.21852   0.103894  
         C         C         0.51541   0.33028   0.59177   -0.161019           
         C         C         0.31488   0.11460   0.25855   -0.043554           
         C         C         0.34372   0.04160   0.24042   0.078545  
         B         B         0.24885   0.14962   0.21746   0.776687  
         O         O         0.25239   0.18740   0.24363   -0.716773           
         C         C         0.31114   0.03805   0.20685   -0.148816           
         C         C         0.28241   0.11139   0.22502   -0.259217           
         C         C         0.28128   0.07226   0.19919   -0.049958           
         O         O         0.21624   0.14521   0.18518   -0.712544           
         C         C         0.26640   0.26140   0.32359   -0.394368           
         C         C         0.12553   0.09270   0.15844   -0.397452           
         H         H         0.28746   0.28204   0.34549   0.121606  
         H         H         0.23206   0.26532   0.33442   0.122847  
         H         H         0.27573   0.22655   0.32877   0.124592  
         H         H         0.10497   0.07144   0.13664   0.119815  
         H         H         0.15589   0.07440   0.16636   0.125234  
         H         H         0.10744   0.09782   0.18952   0.125490  
         H         H         0.30911   0.00774   0.18713   0.112430  
         H         H         0.36927   0.08373   0.29285   0.109037  
         H         H         0.25634   0.06876   0.17309   0.103777  
         H         H         0.31628   0.14436   0.27917   0.100878  
         C         C         0.51831   0.67117   0.90407   -0.160009           
         C         C         0.81151   0.61042   0.75960   -0.047326           
         C         C         0.84271   0.53839   0.74163   0.078451  
         B         B         0.74646   0.64489   0.71675   0.772590  
         O         O         0.74999   0.68265   0.74309   -0.715472           
         C         C         0.81051   0.53395   0.70776   -0.149849           
         C         C         0.77982   0.60663   0.72537   -0.257343           
         C         C         0.77991   0.56742   0.69967   -0.049150           
         O         O         0.71454   0.64072   0.68357   -0.709339           
         C         C         0.76607   0.75795   0.82092   -0.397105           
         C         C         0.62211   0.59012   0.66000   -0.392783           
         H         H         0.78739   0.77830   0.84283   0.122173  
         H         H         0.73165   0.76343   0.83075   0.123805  
         H         H         0.77394   0.72288   0.82709   0.125481  
         H         H         0.59941   0.56940   0.63989   0.119156  
         H         H         0.65234   0.57090   0.66592   0.123559  
         H         H         0.60640   0.59600   0.69225   0.124826  
         H         H         0.80937   0.50358   0.68806   0.112949  
         H         H         0.86601   0.58083   0.79487   0.108729  
         H         H         0.75554   0.56339   0.67312   0.103515  
         H         H         0.81188   0.64016   0.78027   0.104626  
         C         C         0.01868   0.17151   0.40676   -0.159938           
         C         C         0.18734   0.89045   0.76110   -0.046654           
         C         C         0.15630   0.96264   0.74331   0.080224  
         B         B         0.25236   0.85639   0.71880   0.773776  
         O         O         0.25009   0.81884   0.74533   -0.715025           
         C         C         0.18810   0.96697   0.70965   -0.148871           
         C         C         0.21879   0.89430   0.72725   -0.259983           
         C         C         0.21852   0.93344   0.70164   -0.049001           
         O         O         0.28339   0.86080   0.68545   -0.708480           
         C         C         0.23576   0.74504   0.82377   -0.396179           
         C         C         0.37747   0.90842   0.66052   -0.393930           
         H         H         0.21532   0.72506   0.84638   0.122473  
         H         H         0.27055   0.73983   0.83301   0.122268  
         H         H         0.22803   0.78020   0.82959   0.125852  
         H         H         0.39910   0.92888   0.63948   0.120091  
         H         H         0.34876   0.92867   0.66941   0.125639  
         H         H         0.39579   0.90080   0.69123   0.124169  
         H         H         0.18904   0.99733   0.69008   0.112401  
         H         H         0.13305   0.92005   0.79589   0.108704  
         H         H         0.24275   0.93743   0.67539   0.103815  
         H         H         0.18715   0.86071   0.78163   0.103221  
         C         C         0.98361   0.32976   0.40508   -0.161613           
         C         C         0.68683   0.38433   0.25856   -0.046227           
         C         C         0.65696   0.45654   0.23914   0.078961  
         B         B         0.75127   0.34830   0.21726   0.775341  
         O         O         0.74967   0.31218   0.24566   -0.715264           
         C         C         0.68856   0.45952   0.20515   -0.146646           
         C         C         0.71808   0.38676   0.22440   -0.261557           
         C         C         0.71826   0.42519   0.19773   -0.047202           
         O         O         0.78158   0.35065   0.18315   -0.711887           
         C         C         0.73621   0.23811   0.32497   -0.395607           
         C         C         0.87150   0.40471   0.16121   -0.396931           
         H         H         0.71577   0.21778   0.34729   0.121174  
         H         H         0.77095   0.23332   0.33461   0.121809  
         H         H         0.72794   0.27313   0.33080   0.126507  
         H         H         0.89257   0.42642   0.14085   0.120918  
         H         H         0.84049   0.42240   0.16742   0.124310  
         H         H         0.88835   0.39987   0.19332   0.125730  
         H         H         0.68994   0.48944   0.18493   0.109756  
         H         H         0.63331   0.41578   0.29293   0.109852  
         H         H         0.74235   0.42808   0.17120   0.102058  
         H         H         0.68642   0.35518   0.27993   0.104067  
         C         C         0.48232   0.82676   0.90583   -0.159392           
         C         C         0.24032   0.68613   0.61336   -0.044485           
         C         C         0.26034   0.65623   0.54118   0.077127  
         B         B         0.27946   0.75394   0.64861   0.773562  
         O         O         0.25233   0.75205   0.68547   -0.711736           
         C         C         0.29302   0.68956   0.53824   -0.148073           
         C         C         0.27290   0.71938   0.61069   -0.260765           
         C         C         0.29933   0.72027   0.57237   -0.050459           
         O         O         0.31235   0.78579   0.64480   -0.713821           
         C         C         0.17726   0.73923   0.76354   -0.396485           
         C         C         0.33791   0.87799   0.59256   -0.392613           
         H         H         0.15615   0.71904   0.78536   0.120584  
         H         H         0.16806   0.77421   0.76808   0.122633  
         H         H         0.16952   0.72986   0.72902   0.127092  
         H         H         0.35895   0.89829   0.57078   0.119438  
         H         H         0.32769   0.84825   0.57379   0.123824  
         H         H         0.30815   0.89731   0.59994   0.124503  
         H         H         0.31286   0.69177   0.50833   0.111872  
         H         H         0.20809   0.63022   0.58213   0.109248  
         H         H         0.32470   0.74584   0.56941   0.104736  
         H         H         0.21924   0.68490   0.64248   0.104134  
         C         C         0.59426   0.47896   0.16866   -0.162494           
         C         C         0.73985   0.18108   0.11354   -0.042265           
         C         C         0.75759   0.15231   0.04032   0.078429  
         B         B         0.78183   0.24657   0.14983   0.773056  
         O         O         0.75474   0.24507   0.18679   -0.713345           
         C         C         0.79071   0.18519   0.03721   -0.148146           
         C         C         0.77337   0.21338   0.11104   -0.260951           
         C         C         0.79868   0.21483   0.07195   -0.047406           
         O         O         0.81632   0.27683   0.14657   -0.711445           
         C         C         0.67834   0.23141   0.26430   -0.394750           
         C         C         0.83928   0.36859   0.09219   -0.396350           
         H         H         0.66859   0.26622   0.26895   0.122362  
         H         H         0.67099   0.22214   0.22967   0.125767  
         H         H         0.65738   0.21080   0.28586   0.120856  
         H         H         0.85951   0.39048   0.07117   0.121224  
         H         H         0.83342   0.33752   0.07377   0.123764  
         H         H         0.80724   0.38480   0.09703   0.125689  
         H         H         0.80995   0.18752   0.00691   0.112250  
         H         H         0.70557   0.12670   0.08181   0.109043  
         H         H         0.82463   0.23981   0.06898   0.102326  
         H         H         0.71947   0.17970   0.14316   0.100601  
         C         C         0.09288   0.98331   0.67349   -0.160216           
         C         C         0.73845   0.81182   0.38686   -0.045370           
         C         C         0.75686   0.84230   0.45959   0.078627  
         B         B         0.78081   0.74709   0.35145   0.776161  
         O         O         0.75428   0.74950   0.31374   -0.714151           
         C         C         0.79039   0.81019   0.46341   -0.145052           
         C         C         0.77233   0.78024   0.39006   -0.261224           
         C         C         0.79813   0.78002   0.42928   -0.049452           
         O         O         0.81456   0.71641   0.35526   -0.712199           
         C         C         0.67804   0.76228   0.23569   -0.393257           
         C         C         0.83640   0.62298   0.40744   -0.395820           
         H         H         0.65667   0.78297   0.21445   0.120470  
         H         H         0.66885   0.72737   0.22990   0.121843  
         H         H         0.67070   0.77036   0.27048   0.125622  
         H         H         0.85632   0.60100   0.42879   0.120778  
         H         H         0.82869   0.65292   0.42677   0.124943  
         H         H         0.80519   0.60570   0.39980   0.124716  
         H         H         0.81016   0.80888   0.49377   0.109179  
         H         H         0.70398   0.86607   0.41751   0.109169  
         H         H         0.82436   0.75560   0.43281   0.102788  
         H         H         0.71769   0.81228   0.35712   0.104273  
         C         C         0.09405   0.01924   0.83011   -0.161432           
         C         C         0.24231   0.31396   0.88693   -0.042359           
         C         C         0.25819   0.34362   0.96045   0.078985  
         B         B         0.28508   0.24925   0.85254   0.773181  
         O         O         0.25893   0.25215   0.81462   -0.714135           
         C         C         0.29126   0.31118   0.96537   -0.145548           
         C         C         0.27581   0.28207   0.89119   -0.260194           
         C         C         0.30009   0.28122   0.93135   -0.048544           
         O         O         0.31868   0.21835   0.85665   -0.709566           
         C         C         0.18189   0.26710   0.73863   -0.394705           
         C         C         0.34056   0.12543   0.90781   -0.395804           
         H         H         0.16052   0.28797   0.71758   0.120706  
         H         H         0.17128   0.23240   0.73416   0.122304  
         H         H         0.17611   0.27639   0.77343   0.126105  
         H         H         0.36065   0.10401   0.92958   0.120853  
         H         H         0.33229   0.15550   0.92668   0.124896  
         H         H         0.30964   0.10762   0.90017   0.123783  
         H         H         0.30988   0.30961   0.99643   0.110142  
         H         H         0.20716   0.36829   0.91664   0.109648  
         H         H         0.32599   0.25659   0.93572   0.102533  
         H         H         0.22279   0.31488   0.85639   0.100066  
         C         C         0.59662   0.51435   0.32571   -0.162194           
         C         C         0.25889   0.31522   0.11287   -0.044006           
         C         C         0.24138   0.34465   0.03977   0.078269  
         B         B         0.21661   0.25054   0.14831   0.773658  
         O         O         0.24323   0.25449   0.18580   -0.714485           
         C         C         0.20776   0.31229   0.03580   -0.147703           
         C         C         0.22499   0.28330   0.10946   -0.258257           
         C         C         0.19961   0.28239   0.07000   -0.049670           
         O         O         0.18336   0.21887   0.14504   -0.711959           
         C         C         0.32129   0.27018   0.26144   -0.394587           
         C         C         0.16116   0.12821   0.09162   -0.396168           
         H         H         0.33250   0.23579   0.26583   0.123373  
         H         H         0.32670   0.27947   0.22661   0.125072  
         H         H         0.34245   0.29173   0.28235   0.119835  
         H         H         0.14120   0.10698   0.06925   0.121060  
         H         H         0.16857   0.15919   0.07386   0.124057  
         H         H         0.19252   0.11109   0.09810   0.124417  
         H         H         0.18836   0.31051   0.00521   0.110615  
         H         H         0.29394   0.36925   0.08223   0.108708  
         H         H         0.17344   0.25765   0.06630   0.103385  
         H         H         0.27929   0.31619   0.14284   0.101500  
         C         C         0.90509   0.51777   0.67175   -0.160178           
         C         C         0.75844   0.81145   0.61146   -0.048095           
         C         C         0.74056   0.84235   0.53899   0.079601  
         B         B         0.71640   0.74595   0.64603   0.774075  
         O         O         0.74346   0.74854   0.68331   -0.716339           
         C         C         0.70671   0.81025   0.53483   -0.146442           
         C         C         0.72443   0.77965   0.60780   -0.256474           
         C         C         0.69865   0.77976   0.56856   -0.051603           
         O         O         0.68306   0.71441   0.64256   -0.711039           
         C         C         0.82228   0.76240   0.75936   -0.395918           
         C         C         0.65423   0.62424   0.59062   -0.395557           
         H         H         0.84426   0.78319   0.78016   0.121186  
         H         H         0.83163   0.72754   0.76450   0.122988  
         H         H         0.82860   0.77073   0.72444   0.125283  
         H         H         0.63220   0.60365   0.56965   0.119279  
         H         H         0.66149   0.65494   0.57234   0.124312  
         H         H         0.68535   0.60610   0.59511   0.124654  
         H         H         0.68706   0.80907   0.50439   0.109756  
         H         H         0.79345   0.86594   0.58154   0.108527  
         H         H         0.67223   0.75534   0.56456   0.104418  
         H         H         0.77917   0.81180   0.64123   0.104110  
         C         C         0.40551   0.01892   0.17059   -0.161528           
         C         C         0.75854   0.18458   0.88836   -0.047321           
         C         C         0.74127   0.15321   0.96054   0.078793  
         B         B         0.71632   0.24990   0.85372   0.772399  
         O         O         0.74303   0.24752   0.81663   -0.715199           
         C         C         0.70767   0.18517   0.96468   -0.146468           
         C         C         0.72470   0.21617   0.89194   -0.259158           
         C         C         0.69941   0.21580   0.93105   -0.047770           
         O         O         0.68307   0.28121   0.85706   -0.708791           
         C         C         0.81868   0.22767   0.74211   -0.396832           
         C         C         0.66356   0.37230   0.91038   -0.394993           
         H         H         0.83896   0.20539   0.72168   0.120688  
         H         H         0.83087   0.26175   0.73725   0.124105  
         H         H         0.82419   0.21882   0.77712   0.126010  
         H         H         0.64432   0.39433   0.93207   0.121516  
         H         H         0.66901   0.34102   0.92829   0.124237  
         H         H         0.69590   0.38808   0.90510   0.123829  
         H         H         0.68826   0.18603   0.99495   0.110164  
         H         H         0.79355   0.13003   0.91818   0.109084  
         H         H         0.67317   0.24009   0.93497   0.103510  
         H         H         0.77890   0.18448   0.85870   0.104101  
         C         C         0.40637   0.98384   0.32698   -0.160658           
         C         C         0.26016   0.69039   0.38986   -0.047559           
         C         C         0.24356   0.65814   0.46175   0.078977  
         B         B         0.21789   0.75630   0.35686   0.774940  
         O         O         0.24335   0.75394   0.31889   -0.716572           
         C         C         0.21040   0.69040   0.46696   -0.148148           
         C         C         0.22672   0.72221   0.39451   -0.259013           
         C         C         0.20197   0.72160   0.43395   -0.050031           
         O         O         0.18526   0.78795   0.36162   -0.709048           
         C         C         0.31707   0.73484   0.24117   -0.395132           
         C         C         0.16516   0.88209   0.41043   -0.394538           
         H         H         0.32738   0.76936   0.23523   0.123051  
         H         H         0.32457   0.72690   0.27605   0.124716  
         H         H         0.33745   0.71319   0.22017   0.120606  
         H         H         0.14580   0.90411   0.43203   0.120192  
         H         H         0.17402   0.85253   0.42984   0.125137  
         H         H         0.19583   0.89968   0.40196   0.123864  
         H         H         0.19157   0.69105   0.49760   0.112560  
         H         H         0.29500   0.63507   0.41830   0.108511  
         H         H         0.17604   0.74609   0.43860   0.104663  
         H         H         0.28004   0.69056   0.35988   0.103773  
         C         C         0.90775   0.48196   0.82792   -0.160741           
         C         C         0.61212   0.24278   0.68469   -0.047229           
         C         C         0.53972   0.26047   0.65406   0.078767  
         B         B         0.64662   0.28366   0.75181   0.773563  
         O         O         0.68333   0.25644   0.74987   -0.718318           
         C         C         0.53608   0.29393   0.68666   -0.145646           
         C         C         0.60881   0.27619   0.71719   -0.257437           
         C         C         0.56994   0.30179   0.71733   -0.048821           
         O         O         0.64309   0.31669   0.78376   -0.706826           
         C         C         0.75386   0.17466   0.73574   -0.397746           
         C         C         0.59358   0.34188   0.87513   -0.395564           
         H         H         0.77343   0.15185   0.71517   0.121845  
         H         H         0.75779   0.16441   0.77057   0.123677  
         H         H         0.71894   0.17024   0.72638   0.126113  
         H         H         0.57361   0.36297   0.89708   0.119675  
         H         H         0.57466   0.33643   0.84426   0.124631  
         H         H         0.59775   0.30958   0.89154   0.125546  
         H         H         0.50588   0.31333   0.68823   0.109420  
         H         H         0.58182   0.20841   0.62943   0.106286  
         H         H         0.56630   0.32779   0.74224   0.103909  
         H         H         0.64162   0.22224   0.68402   0.102633  
         C         C         0.17366   0.59550   0.48357   -0.160105           
         C         C         0.10938   0.74047   0.19209   -0.046233           
         C         C         0.03794   0.75793   0.15943   0.079481  
         B         B         0.14405   0.78348   0.25726   0.775956  
         O         O         0.18118   0.75685   0.25448   -0.715985           
         C         C         0.03355   0.79196   0.19132   -0.147080           
         C         C         0.10576   0.77490   0.22345   -0.261072           
         C         C         0.06686   0.80047   0.22246   -0.047099           
         O         O         0.14083   0.81696   0.28875   -0.709858           
         C         C         0.25443   0.67892   0.23919   -0.394584           
         C         C         0.09512   0.84532   0.38227   -0.396000           
         H         H         0.27352   0.65643   0.21784   0.122344  
         H         H         0.26097   0.66962   0.27392   0.121814  
         H         H         0.21920   0.67293   0.23225   0.125326  
         H         H         0.07528   0.86679   0.40397   0.119019  
         H         H         0.07465   0.83635   0.35327   0.125181  
         H         H         0.10249   0.81473   0.40071   0.125544  
         H         H         0.00340   0.81153   0.19162   0.110238  
         H         H         0.08002   0.70480   0.13718   0.109367  
         H         H         0.06281   0.82713   0.24658   0.103215  
         H         H         0.13885   0.71990   0.19260   0.102904  
         C         C         0.67189   0.08982   0.98128   -0.163296           
         C         C         0.38808   0.73969   0.81154   -0.045516           
         C         C         0.46083   0.75765   0.84150   0.078962  
         B         B         0.35182   0.78320   0.74759   0.774401  
         O         O         0.31426   0.75685   0.75017   -0.713917           
         C         C         0.46410   0.79176   0.80970   -0.147338           
         C         C         0.39074   0.77417   0.78027   -0.258854           
         C         C         0.42971   0.79999   0.77991   -0.049160           
         O         O         0.35522   0.81719   0.71689   -0.712754           
         C         C         0.23772   0.68181   0.76835   -0.394139           
         C         C         0.40508   0.83870   0.62329   -0.396142           
         H         H         0.23164   0.67109   0.73390   0.122361  
         H         H         0.27248   0.67502   0.77653   0.124945  
         H         H         0.21712   0.66102   0.79009   0.120447  
         H         H         0.42678   0.85864   0.60185   0.120441  
         H         H         0.42420   0.82942   0.65302   0.125133  
         H         H         0.39646   0.80807   0.60520   0.124163  
         H         H         0.49421   0.81163   0.80840   0.110103  
         H         H         0.41946   0.70422   0.86507   0.108930  
         H         H         0.43281   0.82669   0.75574   0.103124  
         H         H         0.35852   0.71892   0.81216   0.103638  
         C         C         0.82814   0.09152   0.01817   -0.161167           
         C         C         0.88786   0.23900   0.31684   -0.045919           
         C         C         0.96118   0.25736   0.34516   0.076900  
         B         B         0.85197   0.27919   0.25035   0.775265  
         O         O         0.81492   0.25216   0.25291   -0.714738           
         C         C         0.96447   0.28985   0.31169   -0.143275           
         C         C         0.89068   0.27172   0.28374   -0.259559           
         C         C         0.92986   0.29713   0.28190   -0.050606           
         O         O         0.85508   0.31263   0.21894   -0.712722           
         C         C         0.73994   0.17505   0.26955   -0.396317           
         C         C         0.90777   0.33681   0.12845   -0.396691           
         H         H         0.72004   0.15387   0.29157   0.121025  
         H         H         0.73386   0.16402   0.23520   0.123225  
         H         H         0.77492   0.16915   0.27750   0.126196  
         H         H         0.92888   0.35796   0.10756   0.120596  
         H         H         0.92573   0.33043   0.15965   0.124254  
         H         H         0.90313   0.30492   0.11115   0.125228  
         H         H         0.99482   0.30917   0.30901   0.108260  
         H         H         0.91922   0.20597   0.37196   0.108995  
         H         H         0.93301   0.32263   0.25649   0.103114  
         H         H         0.85811   0.21863   0.31873   0.103555  
         C         C         0.33151   0.59614   0.51557   -0.160999           
         C         C         0.11352   0.25981   0.31593   -0.046621           
         C         C         0.04081   0.24239   0.34509   0.076928  
         B         B         0.14760   0.21861   0.24954   0.771611  
         O         O         0.18505   0.24521   0.25242   -0.714603           
         C         C         0.03653   0.20937   0.31202   -0.147346           
         C         C         0.10967   0.22668   0.28313   -0.257206           
         C         C         0.07027   0.20152   0.28191   -0.050872           
         O         O         0.14313   0.18541   0.21775   -0.709569           
         C         C         0.25842   0.32454   0.26876   -0.395464           
         C         C         0.09218   0.16159   0.12414   -0.395682           
         H         H         0.27827   0.34616   0.29085   0.120511  
         H         H         0.26340   0.33589   0.23448   0.123194  
         H         H         0.22348   0.32946   0.27697   0.126088  
         H         H         0.07158   0.14117   0.10159   0.120030  
         H         H         0.07293   0.16809   0.15423   0.124488  
         H         H         0.09833   0.19353   0.10765   0.125354  
         H         H         0.00600   0.19019   0.30979   0.112010  
         H         H         0.08380   0.29394   0.37091   0.107980  
         H         H         0.06620   0.17578   0.25670   0.103565  
         H         H         0.14343   0.28002   0.31738   0.102931  
         C         C         0.67149   0.90549   0.51666   -0.162806           
         C         C         0.61248   0.75973   0.81231   -0.042940           
         C         C         0.54008   0.74156   0.84168   0.079545  
         B         B         0.64747   0.71692   0.74747   0.774206  
         O         O         0.68514   0.74319   0.75016   -0.714241           
         C         C         0.53628   0.70790   0.80925   -0.147102           
         C         C         0.60926   0.72572   0.78039   -0.260243           
         C         C         0.57023   0.69999   0.77944   -0.049958           
         O         O         0.64301   0.68313   0.71640   -0.711575           
         C         C         0.76209   0.82006   0.76456   -0.392565           
         C         C         0.58842   0.65960   0.62750   -0.395852           
         H         H         0.78325   0.84120   0.78588   0.120042  
         H         H         0.76732   0.83021   0.72993   0.121974  
         H         H         0.72755   0.82706   0.77292   0.125916  
         H         H         0.56583   0.63957   0.60661   0.121647  
         H         H         0.57151   0.66679   0.65885   0.124695  
         H         H         0.59419   0.69129   0.61040   0.125138  
         H         H         0.50604   0.68823   0.80736   0.110128  
         H         H         0.58194   0.79460   0.86634   0.109350  
         H         H         0.56676   0.67367   0.75473   0.104804  
         H         H         0.64212   0.78040   0.81335   0.101023  
         C         C         0.17263   0.40762   0.01663   -0.161348           
         C         C         0.88729   0.75869   0.18698   -0.047305           
         C         C         0.95925   0.74019   0.15703   0.075523  
         B         B         0.85184   0.71652   0.25190   0.774233  
         O         O         0.81494   0.74349   0.24942   -0.715624           
         C         C         0.96246   0.70611   0.18891   -0.144881           
         C         C         0.89004   0.72450   0.21859   -0.255739           
         C         C         0.92851   0.69830   0.21886   -0.051651           
         O         O         0.85519   0.68298   0.28317   -0.711175           
         C         C         0.73846   0.82051   0.23312   -0.396361           
         C         C         0.90522   0.65939   0.37711   -0.394892           
         H         H         0.71791   0.84175   0.21160   0.121260  
         H         H         0.73236   0.83016   0.26776   0.123297  
         H         H         0.77323   0.82785   0.22580   0.126017  
         H         H         0.92574   0.63875   0.39923   0.119093  
         H         H         0.92479   0.66716   0.34752   0.124563  
         H         H         0.89853   0.69070   0.39457   0.125176  
         H         H         0.99235   0.68619   0.19047   0.108718  
         H         H         0.91824   0.79372   0.13323   0.107820  
         H         H         0.93172   0.67178   0.24322   0.103658  
         H         H         0.85813   0.77971   0.18634   0.103856  
         C         C         0.32760   0.40628   0.98149   -0.161669           
         C         C         0.38883   0.26018   0.68568   -0.047363           
         C         C         0.46077   0.24320   0.65499   0.078650  
         B         B         0.35564   0.21877   0.75209   0.774202  
         O         O         0.31860   0.24552   0.74962   -0.715834           
         C         C         0.46576   0.21036   0.68794   -0.147471           
         C         C         0.39328   0.22707   0.71825   -0.259229           
         C         C         0.43264   0.20226   0.71871   -0.049559           
         O         O         0.35942   0.18543   0.78355   -0.709116           
         C         C         0.24398   0.32306   0.73192   -0.395208           
         C         C         0.40931   0.16200   0.87746   -0.395827           
         H         H         0.22313   0.34422   0.71063   0.121311  
         H         H         0.23970   0.33403   0.76647   0.123443  
         H         H         0.27858   0.32905   0.72284   0.125439  
         H         H         0.43019   0.14134   0.89921   0.120534  
         H         H         0.42860   0.17028   0.84781   0.124058  
         H         H         0.40242   0.19307   0.89529   0.125072  
         H         H         0.49631   0.19147   0.68948   0.112000  
         H         H         0.41748   0.29435   0.63007   0.109170  
         H         H         0.43715   0.17660   0.74378   0.103313  
         H         H         0.35893   0.28013   0.68495   0.103572  
         C         C         0.82684   0.90527   0.48144   -0.160716           
         C         C         0.86073   0.93614   0.48914   -0.048037           
         C         C         0.78891   0.90515   0.50780   0.076923  
         B         B         0.89620   0.00195   0.53129   0.773953  
         O         O         0.93330   -0.00017  0.50465   -0.714149           
         C         C         0.78577   0.93730   0.54173   -0.146438           
         C         C         0.85803   0.96803   0.52317   -0.257958           
         C         C         0.81966   0.96787   0.54939   -0.048502           
         O         O         0.89259   0.03334   0.56476   -0.710823           
         C         C         0.00995   0.98218   0.42991   -0.397395           
         C         C         0.84355   0.12820   0.58423   -0.395151           
         H         H         0.03035   0.96038   0.40908   0.120943  
         H         H         0.01634   0.01666   0.41979   0.123294  
         H         H         0.97512   0.97452   0.42252   0.127039  
         H         H         0.82201   0.15041   0.60339   0.120655  
         H         H         0.82413   0.09856   0.57514   0.124683  
         H         H         0.85252   0.14546   0.55344   0.124013  
         H         H         0.75603   0.93846   0.56177   0.110105  
         H         H         0.82987   0.88146   0.45447   0.108926  
         H         H         0.81656   0.99233   0.57589   0.103576  
         H         H         0.88986   0.93572   0.46816   0.103572  
         C         C         0.42250   0.73140   0.84159   -0.161978           
         C         C         0.36163   0.43699   0.98886   -0.045734           
         C         C         0.28974   0.40675   0.00787   0.079365  
         B         B         0.39755   0.50258   0.03031   0.772377  
         O         O         0.43376   0.50013   0.00245   -0.714308           
         C         C         0.28660   0.43930   0.04137   -0.145371           
         C         C         0.35907   0.46910   0.02266   -0.258598           
         C         C         0.32071   0.46962   0.04883   -0.049853           
         O         O         0.39509   0.53349   0.06437   -0.709166           
         C         C         0.50946   0.48438   0.92486   -0.396949           
         C         C         0.34466   0.62477   0.09006   -0.399504           
         H         H         0.52965   0.46304   0.90337   0.121452  
         H         H         0.51555   0.51906   0.91523   0.123090  
         H         H         0.47457   0.47666   0.91783   0.125870  
         H         H         0.32440   0.64669   0.11089   0.121568  
         H         H         0.32563   0.59421   0.08366   0.125324  
         H         H         0.34974   0.64156   0.05810   0.125762  
         H         H         0.25674   0.44093   0.06118   0.109580  
         H         H         0.33037   0.38215   0.95478   0.108516  
         H         H         0.31775   0.49445   0.07499   0.102808  
         H         H         0.39069   0.43628   0.96781   0.103849  
         C         C         0.92242   0.23185   0.34707   -0.160287           
         C         C         0.63768   0.05957   0.98918   -0.044850           
         C         C         0.71042   0.08940   0.00735   0.078521  
         B         B         0.60180   0.99516   0.03213   0.772793  
         O         O         0.56447   0.99765   0.00513   -0.713844           
         C         C         0.71412   0.05701   0.04088   -0.147479           
         C         C         0.64069   0.02782   0.02323   -0.258882           
         C         C         0.67988   0.02713   0.04887   -0.049583           
         O         O         0.60508   0.96485   0.06656   -0.711979           
         C         C         0.48783   0.00822   0.92598   -0.394180           
         C         C         0.65550   0.87399   0.09489   -0.397016           
         H         H         0.46721   0.02842   0.90354   0.121058  
         H         H         0.48177   0.97310   0.91779   0.120962  
         H         H         0.52257   0.01580   0.91874   0.125722  
         H         H         0.67644   0.85354   0.11679   0.119330  
         H         H         0.67440   0.90394   0.08619   0.124350  
         H         H         0.64931   0.85504   0.06420   0.125827  
         H         H         0.74440   0.05536   0.06057   0.111955  
         H         H         0.66858   0.11374   0.95449   0.109505  
         H         H         0.68333   0.00265   0.07526   0.102951  
         H         H         0.60803   0.06052   0.96847   0.103546  
         C         C         0.07979   0.26765   0.34638   -0.159166           
         C         C         0.13941   0.56549   0.49204   -0.047040           
         C         C         0.21308   0.59380   0.50815   0.078032  
         B         B         0.10418   0.50056   0.53413   0.776897  
         O         O         0.06646   0.50477   0.50827   -0.717395           
         C         C         0.21765   0.56046   0.54063   -0.148691           
         C         C         0.14328   0.53282   0.52510   -0.259632           
         C         C         0.18336   0.53079   0.54915   -0.049569           
         O         O         0.10743   0.46878   0.56716   -0.711461           
         C         C         0.99291   0.52130   0.42854   -0.394270           
         C         C         0.15588   0.37499   0.58966   -0.399344           
         H         H         0.97262   0.54249   0.40675   0.121258  
         H         H         0.98821   0.48669   0.41773   0.122880  
         H         H         0.02771   0.53028   0.42331   0.124848  
         H         H         0.17630   0.35224   0.60968   0.120851  
         H         H         0.17569   0.40490   0.58305   0.125550  
         H         H         0.14883   0.35861   0.55769   0.125023  
         H         H         0.24862   0.55797   0.55909   0.112698  
         H         H         0.16964   0.62019   0.45759   0.108860  
         H         H         0.18740   0.50551   0.57468   0.103095  
         H         H         0.10897   0.56732   0.47261   0.104058  
         C         C         0.57852   0.76769   0.84242   -0.163015           
         C         C         0.36569   0.56671   0.50589   -0.045344           
         C         C         0.29211   0.59515   0.49087   0.078418  
         B         B         0.40045   0.50264   0.46233   0.774621  
         O         O         0.43790   0.50656   0.48884   -0.713125           
         C         C         0.28775   0.56330   0.45668   -0.148125           
         C         C         0.36183   0.53520   0.47150   -0.258605           
         C         C         0.32193   0.53411   0.44705   -0.048607           
         O         O         0.39712   0.47100   0.42888   -0.712874           
         C         C         0.51115   0.51696   0.56909   -0.394625           
         C         C         0.33892   0.38434   0.40289   -0.393708           
         H         H         0.53274   0.53683   0.59120   0.120307  
         H         H         0.51264   0.48227   0.58030   0.122517  
         H         H         0.47714   0.52865   0.57346   0.125803  
         H         H         0.31691   0.36372   0.38193   0.119706  
         H         H         0.32294   0.41668   0.40763   0.122970  
         H         H         0.34167   0.36822   0.43552   0.124838  
         H         H         0.25691   0.56138   0.43789   0.110483  
         H         H         0.33549   0.61970   0.54275   0.108457  
         H         H         0.31780   0.50982   0.42044   0.101932  
         H         H         0.39602   0.56791   0.52559   0.103797  
         C         C         0.92125   0.76656   0.15677   -0.158211           
         C         C         0.86249   0.06173   0.01030   -0.045148           
         C         C         0.78978   0.09068   0.99179   0.077699  
         B         B         0.89851   0.99730   0.96788   0.773032  
         O         O         0.93553   0.00007   0.99523   -0.713720           
         C         C         0.78656   0.05847   0.95785   -0.147960           
         C         C         0.85981   0.02999   0.97608   -0.259553           
         C         C         0.82091   0.02896   0.95001   -0.049620           
         O         O         0.89526   0.96636   0.93378   -0.709789           
         C         C         0.01085   0.01577   0.07398   -0.396071           
         C         C         0.84330   0.87491   0.90992   -0.394939           
         H         H         0.03159   0.03698   0.09564   0.120939  
         H         H         0.01572   0.98112   0.08426   0.122780  
         H         H         0.97616   0.02436   0.07998   0.126392  
         H         H         0.82144   0.85422   0.88888   0.120454  
         H         H         0.82546   0.90554   0.91797   0.124349  
         H         H         0.84929   0.85683   0.94106   0.125203  
         H         H         0.75644   0.05641   0.93791   0.112531  
         H         H         0.83122   0.11524   0.04530   0.108470  
         H         H         0.81777   0.00442   0.92350   0.102756  
         H         H         0.89199   0.06289   0.03125   0.103598  
         C         C         0.42190   0.26822   0.65453   -0.161116           
         C         C         0.13954   0.43881   0.00851   -0.046303           
         C         C         0.21087   0.40712   0.99080   0.078838  
         B         B         0.10576   0.50449   0.96638   0.776107  
         O         O         0.06891   0.50208   0.99325   -0.716868           
         C         C         0.21523   0.43916   0.95702   -0.145866           
         C         C         0.14339   0.47053   0.97455   -0.260536           
         C         C         0.18210   0.47005   0.94889   -0.050539           
         O         O         0.10938   0.53595   0.93307   -0.709921           
         C         C         0.99501   0.48784   0.07162   -0.396537           
         C         C         0.15876   0.62918   0.90738   -0.398023           
         H         H         0.97512   0.46684   0.09382   0.122675  
         H         H         0.98925   0.52266   0.08084   0.122584  
         H         H         0.02999   0.48046   0.07813   0.125850  
         H         H         0.17919   0.65045   0.88595   0.119895  
         H         H         0.17798   0.59933   0.91537   0.124541  
         H         H         0.15297   0.64733   0.93849   0.126374  
         H         H         0.24537   0.44004   0.93757   0.109799  
         H         H         0.16880   0.38391   0.04352   0.109264  
         H         H         0.18612   0.49449   0.92257   0.105401  
         H         H         0.11013   0.43887   0.02910   0.103005  
         C         C         0.57829   0.23496   0.65366   -0.160227           
         C         C         0.63801   0.93631   0.50856   -0.045245           
         C         C         0.70981   0.90546   0.49091   0.078672  
         B         B         0.60369   0.00207   0.46659   0.773845  
         O         O         0.56678   -0.00026  0.49341   -0.716768           
         C         C         0.71382   0.93768   0.45726   -0.145412           
         C         C         0.64153   0.96823   0.47474   -0.260327           
         C         C         0.68034   0.96822   0.44919   -0.048725           
         O         O         0.60725   0.03360   0.43331   -0.709097           
         C         C         0.49073   0.97751   0.56822   -0.394939           
         C         C         0.65718   0.12935   0.41771   -0.396758           
         H         H         0.47031   0.95462   0.58796   0.120324  
         H         H         0.48460   0.01141   0.58022   0.123469  
         H         H         0.52555   0.96966   0.57497   0.125228  
         H         H         0.67893   0.15199   0.39915   0.120556  
         H         H         0.67630   0.09951   0.42596   0.125227  
         H         H         0.64844   0.14591   0.44898   0.124878  
         H         H         0.74392   0.93886   0.43776   0.108959  
         H         H         0.66783   0.88161   0.54342   0.109522  
         H         H         0.68416   0.99278   0.42296   0.103584  
         H         H         0.60857   0.93588   0.52911   0.103742  
         C         C         0.07615   0.73195   0.16067   -0.162185           
         C         C         0.93900   0.49028   0.86145   -0.044068           
         C         C         0.90644   0.50828   0.78959   0.078710  
         B         B         0.00417   0.53343   0.89619   0.775067  
         O         O         0.00211   0.50648   0.93341   -0.715133           
         C         C         0.93785   0.54274   0.78565   -0.144728           
         C         C         0.97012   0.52493   0.85801   -0.258018           
         C         C         0.96886   0.55098   0.81916   -0.051370           
         O         O         0.03541   0.56701   0.89280   -0.710901           
         C         C         0.99063   0.42931   0.01137   -0.394320           
         C         C         0.12501   0.59186   0.83985   -0.395592           
         H         H         0.97055   0.40772   0.03283   0.121122  
         H         H         0.02546   0.42047   0.01658   0.121712  
         H         H         0.98186   0.42157   0.97669   0.125512  
         H         H         0.14496   0.61292   0.81777   0.120634  
         H         H         0.09458   0.58273   0.82182   0.124257  
         H         H         0.14367   0.56129   0.84624   0.124393  
         H         H         0.93807   0.56278   0.75557   0.109070  
         H         H         0.88452   0.45458   0.83159   0.108363  
         H         H         0.99281   0.57778   0.81532   0.103497  
         H         H         0.93954   0.46930   0.89087   0.101221  
         C         C         0.73072   0.84234   0.42097   -0.161235           
         C         C         0.43766   0.99156   0.36061   -0.047955           
         C         C         0.40634   0.00956   0.28826   0.078992  
         B         B         0.50404   0.03336   0.39500   0.772819  
         O         O         0.50191   0.00675   0.43248   -0.718584           
         C         C         0.43908   0.04269   0.28393   -0.145342           
         C         C         0.46997   0.02501   0.35687   -0.257837           
         C         C         0.47001   0.05042   0.31758   -0.048993           
         O         O         0.53549   0.06675   0.39096   -0.706809           
         C         C         0.48814   0.92453   0.50286   -0.397989           
         C         C         0.62967   0.09493   0.34588   -0.394638           
         H         H         0.46785   0.90101   0.52200   0.122617  
         H         H         0.52295   0.91542   0.50776   0.121956  
         H         H         0.47989   0.91991   0.46751   0.126811  
         H         H         0.65139   0.11715   0.32678   0.117974  
         H         H         0.60095   0.08670   0.32480   0.125418  
         H         H         0.64788   0.06410   0.35234   0.125025  
         H         H         0.44037   0.06201   0.25343   0.109187  
         H         H         0.38218   0.95737   0.33086   0.108552  
         H         H         0.49491   0.07630   0.31351   0.103812  
         H         H         0.43722   0.97107   0.39038   0.102947  
         C         C         0.23349   0.34424   0.92093   -0.162567           
         C         C         0.06180   0.99040   0.63963   -0.048138           
         C         C         0.09307   0.00972   0.71189   0.078520  
         B         B         0.99574   0.03149   0.60462   0.773420  
         O         O         0.99780   0.00482   0.56701   -0.715736           
         C         C         0.06073   0.04300   0.71560   -0.147840           
         C         C         0.02976   0.02384   0.64286   -0.258634           
         C         C         0.02991   0.05004   0.68176   -0.047569           
         O         O         0.96441   0.06464   0.60893   -0.708726           
         C         C         0.01198   0.92593   0.49212   -0.395743           
         C         C         0.87059   0.09204   0.65507   -0.397872           
         H         H         0.03251   0.90367   0.47192   0.121159  
         H         H         0.97723   0.91675   0.48620   0.122480  
         H         H         0.01974   0.91950   0.52725   0.125926  
         H         H         0.84893   0.11373   0.67470   0.119945  
         H         H         0.89919   0.08344   0.67601   0.125901  
         H         H         0.85220   0.06130   0.64768   0.125159  
         H         H         0.05960   0.06301   0.74575   0.110671  
         H         H         0.11682   0.95678   0.67003   0.107899  
         H         H         0.00523   0.07596   0.68537   0.103610  
         H         H         0.06213   0.96938   0.61014   0.103728  
         C         C         0.26711   0.34536   0.07866   -0.160785           
         C         C         0.56350   0.48723   0.13480   -0.046351           
         C         C         0.59466   0.50476   0.20742   0.079194  
         B         B         0.49879   0.53067   0.10031   0.775265  
         O         O         0.50008   0.50435   0.06255   -0.716003           
         C         C         0.56291   0.53853   0.21170   -0.145027           
         C         C         0.53223   0.52134   0.13850   -0.260394           
         C         C         0.53251   0.54680   0.17786   -0.047453           
         O         O         0.46876   0.56493   0.10473   -0.710850           
         C         C         0.51248   0.42712   0.98612   -0.395336           
         C         C         0.38025   0.59033   0.15797   -0.395013           
         H         H         0.53318   0.40519   0.96573   0.120261  
         H         H         0.47781   0.41785   0.97997   0.122264  
         H         H         0.52014   0.42029   0.02120   0.126322  
         H         H         0.35936   0.61083   0.17959   0.121292  
         H         H         0.41114   0.58352   0.17608   0.123670  
         H         H         0.36309   0.55852   0.15244   0.124516  
         H         H         0.56215   0.55804   0.24219   0.109337  
         H         H         0.61779   0.45210   0.16491   0.109318  
         H         H         0.50831   0.57316   0.18168   0.102786  
         H         H         0.56356   0.46676   0.10490   0.103532  
         C         C         0.76650   0.84223   0.57775   -0.161044           
         C         C         0.56638   0.50664   0.35969   -0.044955           
         C         C         0.59535   0.48867   0.28687   0.078567  
         B         B         0.50063   0.46598   0.39445   0.773824  
         O         O         0.50443   0.49321   0.43148   -0.714455           
         C         C         0.56257   0.45547   0.28282   -0.145302           
         C         C         0.53386   0.47333   0.35609   -0.260475           
         C         C         0.53260   0.44781   0.31679   -0.049191           
         O         O         0.46849   0.43313   0.39100   -0.710240           
         C         C         0.52419   0.57109   0.50643   -0.394092           
         C         C         0.37894   0.41313   0.33536   -0.395258           
         H         H         0.54625   0.59123   0.52780   0.120101  
         H         H         0.49062   0.58440   0.50955   0.123970  
         H         H         0.53465   0.57574   0.47187   0.125063  
         H         H         0.35676   0.39370   0.31346   0.121145  
         H         H         0.41071   0.41689   0.31837   0.123384  
         H         H         0.36455   0.44634   0.33926   0.124903  
         H         H         0.56049   0.43602   0.25233   0.109808  
         H         H         0.62097   0.54077   0.32939   0.109096  
         H         H         0.50750   0.42200   0.31297   0.103404  
         H         H         0.56772   0.52706   0.38958   0.103789  
         C         C         0.76682   0.15366   0.92197   -0.162894           
         C         C         0.06399   0.01065   0.86409   -0.047068           
         C         C         0.09391   0.99326   0.79142   0.078258  
         B         B         -0.00034  0.96716   0.89894   0.774492  
         O         O         0.00230   0.99352   0.93665   -0.715434           
         C         C         0.06221   0.95899   0.78750   -0.147536           
         C         C         0.03270   0.97614   0.86069   -0.257330           
         C         C         0.03245   0.95045   0.82146   -0.051625           
         O         O         0.96864   0.93333   0.89482   -0.711326           
         C         C         0.01615   0.07189   0.01177   -0.393778           
         C         C         0.87659   0.90946   0.84144   -0.397481           
         H         H         0.03711   0.09372   0.03259   0.120368  
         H         H         0.98165   0.08199   0.01637   0.122512  
         H         H         0.02479   0.07794   0.97690   0.125057  
         H         H         0.85510   0.88871   0.82007   0.120491  
         H         H         0.90681   0.91685   0.82284   0.124401  
         H         H         0.85941   0.94094   0.84743   0.126670  
         H         H         0.06079   0.93933   0.75711   0.112022  
         H         H         0.11740   0.04658   0.83369   0.108933  
         H         H         0.00833   0.92371   0.81776   0.103947  
         H         H         0.06454   0.03131   0.89386   0.104161  
         C         C         0.26859   0.65890   0.42285   -0.161915           
         C         C         0.43586   0.01059   0.13686   -0.048974           
         C         C         0.40510   0.99270   0.20897   0.079192  
         B         B         0.50036   0.96767   0.10242   0.776436  
         O         O         0.49793   0.99366   0.06455   -0.714355           
         C         C         0.43641   0.95843   0.21291   -0.149357           
         C         C         0.46687   0.97619   0.14030   -0.258552           
         C         C         0.46652   0.95023   0.17922   -0.048548           
         O         O         0.53158   0.93455   0.10723   -0.713421           
         C         C         0.48489   0.06830   0.98472   -0.395584           
         C         C         0.62269   0.91290   0.16122   -0.394320           
         H         H         0.46370   0.08894   0.96323   0.120451  
         H         H         0.51939   0.07774   0.97846   0.122588  
         H         H         0.47739   0.07671   0.01939   0.125976  
         H         H         0.64367   0.89326   0.18381   0.120774  
         H         H         0.59258   0.92181   0.17923   0.124712  
         H         H         0.64056   0.94376   0.15350   0.124026  
         H         H         0.43723   0.93860   0.24311   0.112914  
         H         H         0.38236   0.04619   0.16706   0.109765  
         H         H         0.49044   0.92358   0.18297   0.102424  
         H         H         0.43586   0.03138   0.10729   0.104847  
         C         C         0.23407   0.65505   0.57926   -0.161347           
         C         C         0.93581   0.51088   0.63802   -0.045272           
         C         C         0.90564   0.49152   0.71014   0.078967  
         B         B         0.00200   0.47055   0.60328   0.774172  
         O         O         -0.00042  0.49752   0.56604   -0.714444           
         C         C         0.93830   0.45851   0.71388   -0.144706           
         C         C         0.96822   0.47774   0.64130   -0.258257           
         C         C         0.96873   0.45164   0.68016   -0.052405           
         O         O         0.03353   0.43756   0.60723   -0.711658           
         C         C         0.98672   0.57698   0.49107   -0.395967           
         C         C         0.12465   0.40954   0.65917   -0.395986           
         H         H         0.96635   0.59880   0.46999   0.121613  
         H         H         0.02140   0.58710   0.48710   0.122778  
         H         H         0.97756   0.58297   0.52582   0.126275  
         H         H         0.14507   0.38750   0.67999   0.120378  
         H         H         0.09488   0.41783   0.67803   0.125348  
         H         H         0.14344   0.44038   0.65390   0.125097  
         H         H         0.94005   0.43865   0.74403   0.109142  
         H         H         0.88088   0.54409   0.66825   0.108637  
         H         H         0.99368   0.42596   0.68390   0.104988  
         H         H         0.93490   0.53186   0.60860   0.101017  
         C         C         0.73201   0.15102   0.07885   -0.162071           
         C         C         0.48986   0.85997   0.93755   -0.049219           
         C         C         0.50890   0.78885   0.90489   0.078836  
         B         B         0.53152   0.89417   0.00392   0.771540  
         O         O         0.50446   0.93112   0.00172   -0.716148           
         C         C         0.54286   0.78492   0.93697   -0.145131           
         C         C         0.52390   0.85649   0.96938   -0.257118           
         C         C         0.55034   0.81813   0.96839   -0.050176           
         O         O         0.56458   0.89058   0.03580   -0.708732           
         C         C         0.42752   0.00697   0.98359   -0.394741           
         C         C         0.58705   0.84274   0.13111   -0.396128           
         H         H         0.40592   0.02650   0.96149   0.121688  
         H         H         0.41831   0.01445   0.01803   0.122403  
         H         H         0.42051   0.97164   0.97734   0.125463  
         H         H         0.60742   0.82250   0.15374   0.119308  
         H         H         0.57937   0.82248   0.10160   0.125659  
         H         H         0.55586   0.84995   0.14803   0.124891  
         H         H         0.56299   0.75506   0.93738   0.109062  
         H         H         0.45535   0.83027   0.88205   0.108339  
         H         H         0.57674   0.81448   0.99293   0.103954  
         H         H         0.46873   0.88915   0.93802   0.104553  
         C         C         0.84403   0.42030   0.73276   -0.163209           
         C         C         0.99112   0.36471   0.43495   -0.047654           
         C         C         0.00908   0.29107   0.40711   0.078590  
         B         B         0.03214   0.40133   0.50117   0.773393  
         O         O         0.00660   0.43929   0.49770   -0.714295           
         C         C         0.04194   0.28826   0.44043   -0.147463           
         C         C         0.02411   0.36234   0.46798   -0.256450           
         C         C         0.04942   0.32317   0.47001   -0.051955           
         O         O         0.06468   0.39720   0.53347   -0.713255           
         C         C         0.93028   0.51513   0.48323   -0.394890           
         C         C         0.08670   0.34315   0.62382   -0.397628           
         H         H         0.90932   0.53606   0.46181   0.119842  
         H         H         0.91948   0.51976   0.51769   0.122715  
         H         H         0.92408   0.48030   0.47397   0.126321  
         H         H         0.10649   0.32056   0.64464   0.121569  
         H         H         0.07832   0.32553   0.59284   0.124458  
         H         H         0.05580   0.34994   0.64142   0.125220  
         H         H         0.06127   0.25798   0.44328   0.112059  
         H         H         0.95739   0.33263   0.38037   0.109177  
         H         H         0.07505   0.32025   0.49545   0.102942  
         H         H         0.97078   0.39439   0.43286   0.104605  
         C         C         0.34156   0.92347   0.23098   -0.160801           
         C         C         0.99222   0.63787   0.06219   -0.045147           
         C         C         0.00879   0.70997   0.09497   0.078429  
         B         B         0.03543   0.60478   0.99702   0.774424  
         O         O         0.00883   0.56720   0.99842   -0.716583           
         C         C         0.04305   0.71490   0.06391   -0.149398           
         C         C         0.02657   0.64236   0.03133   -0.257606           
         C         C         0.05187   0.68177   0.03293   -0.049708           
         O         O         0.06889   0.60914   0.96609   -0.708951           
         C         C         0.93271   0.48937   0.01523   -0.396007           
         C         C         0.08889   0.65988   0.87253   -0.396603           
         H         H         0.91220   0.46864   0.03712   0.121004  
         H         H         0.92227   0.48280   0.98077   0.123115  
         H         H         0.92552   0.52432   0.02278   0.125990  
         H         H         0.10921   0.68248   0.85236   0.120004  
         H         H         0.07945   0.67782   0.90281   0.124855  
         H         H         0.05860   0.65234   0.85353   0.125845  
         H         H         0.06246   0.74545   0.06394   0.112934  
         H         H         0.95623   0.66656   0.11649   0.108463  
         H         H         0.07851   0.68631   0.00924   0.103999  
         H         H         0.97189   0.60792   0.06138   0.100445  
         C         C         0.34498   0.08034   0.26626   -0.161018           
         C         C         0.48981   0.13731   0.56397   -0.043317           
         C         C         0.50733   0.21121   0.59208   0.078793  
         B         B         0.53113   0.10102   0.49901   0.774285  
         O         O         0.50502   0.06315   0.50223   -0.710387           
         C         C         0.53987   0.21476   0.55905   -0.146143           
         C         C         0.52273   0.14029   0.53147   -0.258711           
         C         C         0.54757   0.17997   0.52960   -0.050586           
         O         O         0.56455   0.10469   0.46801   -0.715488           
         C         C         0.42991   0.98385   0.51055   -0.395787           
         C         C         0.58995   0.16079   0.37884   -0.393922           
         H         H         0.40891   0.96102   0.52976   0.120246  
         H         H         0.42046   0.98051   0.47535   0.121944  
         H         H         0.42232   0.01790   0.52115   0.126819  
         H         H         0.61082   0.18376   0.35968   0.120730  
         H         H         0.57984   0.17812   0.40925   0.122896  
         H         H         0.56010   0.15378   0.35897   0.125113  
         H         H         0.55890   0.24542   0.55646   0.109394  
         H         H         0.45615   0.16870   0.61820   0.109429  
         H         H         0.57306   0.18336   0.50449   0.103285  
         H         H         0.46983   0.10721   0.56579   0.102165  
         C         C         0.84236   0.57695   0.76775   -0.161158           
         C         C         0.50665   0.36410   0.56124   -0.047506           
         C         C         0.49054   0.29092   0.59127   0.078831  
         B         B         0.46441   0.39840   0.49547   0.776265  
         O         O         0.49133   0.43561   0.49821   -0.719887           
         C         C         0.45708   0.28627   0.55868   -0.146527           
         C         C         0.47291   0.36003   0.52904   -0.259313           
         C         C         0.44830   0.32014   0.52844   -0.048343           
         O         O         0.43102   0.39516   0.46378   -0.708184           
         C         C         0.57408   0.50460   0.51588   -0.394553           
         C         C         0.40511   0.34314   0.37344   -0.395041           
         H         H         0.59652   0.52398   0.53755   0.121760  
         H         H         0.58599   0.50767   0.48162   0.123162  
         H         H         0.57671   0.46954   0.52562   0.124185  
         H         H         0.38373   0.32292   0.35144   0.118573  
         H         H         0.40898   0.32517   0.40495   0.124281  
         H         H         0.43774   0.34552   0.35787   0.125140  
         H         H         0.43826   0.25539   0.55695   0.109578  
         H         H         0.54207   0.33453   0.61584   0.108530  
         H         H         0.42224   0.31574   0.50362   0.103165  
         H         H         0.52658   0.39431   0.56211   0.103048  
         C         C         0.15662   0.92399   0.76914   -0.160748           
         C         C         0.00950   0.86163   0.06535   -0.047313           
         C         C         0.99123   0.78899   0.09533   0.078672  
         B         B         0.96831   0.89661   -0.00075  0.773438  
         O         O         0.99515   0.93397   0.00253   -0.714460           
         C         C         0.95801   0.78501   0.06245   -0.148511           
         C         C         0.97606   0.85817   0.03281   -0.258214           
         C         C         0.95042   0.81895   0.03203   -0.049259           
         O         O         0.93530   0.89294   0.96721   -0.711011           
         C         C         0.07234   0.01039   0.01782   -0.396325           
         C         C         0.91083   0.84081   0.87518   -0.395721           
         H         H         0.09379   0.03157   0.03880   0.120917  
         H         H         0.08225   0.01513   0.98310   0.123377  
         H         H         0.07876   0.97563   0.02673   0.126156  
         H         H         0.88988   0.81957   0.85376   0.120204  
         H         H         0.91815   0.82219   0.90571   0.124389  
         H         H         0.94210   0.84654   0.85779   0.124336  
         H         H         0.93842   0.75462   0.06071   0.112454  
         H         H         0.04354   0.83128   0.12046   0.109249  
         H         H         0.92448   0.81517   0.00698   0.103740  
         H         H         0.03009   0.89139   0.06642   0.104140  
         C         C         0.65674   0.41855   0.26592   -0.161414           
         C         C         0.01087   0.13724   0.43704   -0.046350           
         C         C         0.99397   0.21071   0.40821   0.076992  
         B         B         0.96935   0.10187   0.50260   0.773216  
         O         O         0.99542   0.06423   0.49996   -0.712062           
         C         C         0.96178   0.21482   0.44150   -0.147536           
         C         C         0.97822   0.14074   0.46979   -0.258948           
         C         C         0.95388   0.18051   0.47139   -0.050280           
         O         O         0.93574   0.10527   0.53336   -0.713511           
         C         C         0.07025   0.98627   0.48852   -0.395832           
         C         C         0.91106   0.15866   0.62413   -0.395624           
         H         H         0.09157   0.96491   0.46820   0.119916  
         H         H         0.07931   0.98107   0.52356   0.121847  
         H         H         0.07780   0.02098   0.48016   0.126740  
         H         H         0.89041   0.18117   0.64390   0.121821  
         H         H         0.92144   0.17670   0.59425   0.123530  
         H         H         0.94079   0.15114   0.64387   0.124473  
         H         H         0.94310   0.24552   0.44390   0.112485  
         H         H         0.04438   0.16769   0.38207   0.108391  
         H         H         0.92863   0.18435   0.49665   0.102973  
         H         H         0.03057   0.10711   0.43537   0.103892  
         C         C         0.65728   0.57471   0.22859   -0.162311           
         C         C         0.51053   0.63735   0.93483   -0.046869           
         C         C         0.49250   0.70963   0.90411   0.077948  
         B         B         0.46883   0.60256   0.00018   0.771254  
         O         O         0.49519   0.56507   0.99759   -0.714021           
         C         C         0.45915   0.71355   0.93626   -0.148015           
         C         C         0.47699   0.64075   0.96661   -0.258330           
         C         C         0.45141   0.67974   0.96670   -0.050199           
         O         O         0.43578   0.60670   0.03154   -0.709188           
         C         C         0.57054   0.48774   0.98272   -0.395247           
         C         C         0.41387   0.65887   0.12329   -0.396379           
         H         H         0.57789   0.52258   0.97469   0.125609  
         H         H         0.59176   0.46674   0.96190   0.120096  
         H         H         0.58003   0.48217   0.01759   0.122628  
         H         H         0.39402   0.68016   0.14514   0.121791  
         H         H         0.42021   0.67741   0.09257   0.124347  
         H         H         0.44575   0.65311   0.13997   0.124736  
         H         H         0.43964   0.74378   0.93744   0.112875  
         H         H         0.54481   0.66763   0.88022   0.107980  
         H         H         0.42543   0.68340   0.99122   0.104793  
         H         H         0.53104   0.60774   0.93444   0.103217  
         C         C         0.15603   0.08033   0.73354   -0.162490           
         Si        Si        0.76228   0.73590   0.26113   1.389912  
         C         C         0.72700   0.77118   0.22466   -0.099459           
         C         C         0.86220   0.63430   0.36490   -0.097405           
         Si        Si        0.82736   0.67015   0.32854   1.391940  
         Si        Si        0.26599   0.23845   0.76195   1.390772  
         C         C         0.23067   0.27388   0.72560   -0.099159           
         C         C         0.36645   0.13662   0.86526   -0.094775           
         Si        Si        0.33151   0.17247   0.82896   1.389405  
         Si        Si        0.73609   0.26073   0.76376   1.391521  
         C         C         0.76959   0.22294   0.72850   -0.096740           
         C         C         0.63843   0.36464   0.86616   -0.098896           
         Si        Si        0.67184   0.32778   0.82982   1.390831  
         Si        Si        0.23416   0.76477   0.26588   1.388420  
         C         C         0.26770   0.72761   0.23007   -0.097803           
         C         C         0.13774   0.86991   0.36860   -0.097709           
         Si        Si        0.17093   0.83247   0.33262   1.391319  
         Si        Si        0.23735   0.23976   0.23828   1.392834  
         C         C         0.27251   0.27569   0.27478   -0.098600           
         C         C         0.13561   0.13707   0.13492   -0.096256           
         Si        Si        0.17060   0.17266   0.17201   1.392449  
         Si        Si        0.73720   0.73545   0.73615   1.392050  
         C         C         0.77370   0.77073   0.77190   -0.099079           
         C         C         0.63186   0.63401   0.63545   -0.098610           
         Si        Si        0.66939   0.66904   0.67049   1.391124  
         Si        Si        0.26159   0.76569   0.73806   1.387022  
         C         C         0.22633   0.73127   0.77514   -0.097337           
         C         C         0.36367   0.86580   0.63527   -0.100666           
         Si        Si        0.32748   0.83152   0.67158   1.394367  
         Si        Si        0.76243   0.25924   0.23942   1.392124  
         C         C         0.72745   0.22426   0.27624   -0.098235           
         C         C         0.86335   0.36019   0.13679   -0.097319           
         Si        Si        0.82812   0.32410   0.17233   1.393140  
         Si        Si        0.98602   0.01181   0.51371   1.387404  
         C         C         0.02126   0.97473   0.47945   -0.096231           
         C         C         0.88471   0.11615   0.61224   -0.096703           
         Si        Si        0.92047   0.07876   0.57889   1.393518  
         Si        Si        0.48665   0.51229   0.00987   1.388758  
         C         C         0.52145   0.47616   0.97410   -0.095137           
         C         C         0.38887   0.61498   0.11392   -0.096772           
         Si        Si        0.42319   0.57913   0.07748   1.390641  
         Si        Si        0.51187   0.98449   0.01233   1.388738  
         C         C         0.47640   0.01863   0.97478   -0.096707           
         C         C         0.61218   0.88567   0.11886   -0.097439           
         Si        Si        0.57715   0.91979   0.08105   1.394670  
         Si        Si        0.01381   0.49152   0.51345   1.393676  
         C         C         0.97929   0.52805   0.47741   -0.099844           
         C         C         0.11312   0.38616   0.61485   -0.097020           
         Si        Si        0.07866   0.42367   0.57979   1.394072  
         Si        Si        0.48907   0.48842   0.48382   1.392883  
         C         C         0.52642   0.52186   0.52052   -0.099021           
         C         C         0.38434   0.38934   0.38045   -0.096725           
         Si        Si        0.42140   0.42319   0.41716   1.389536  
         Si        Si        0.98808   0.98668   0.98904   1.390110  
         C         C         0.02351   0.02292   0.02494   -0.097675           
         C         C         0.88672   0.88471   0.88519   -0.097749           
         Si        Si        0.92256   0.92042   0.92125   1.391366  
         Si        Si        0.01624   0.51436   0.98602   1.390132  
         C         C         0.98198   0.47852   0.02275   -0.098242           
         C         C         0.11511   0.61729   0.88322   -0.096262           
         Si        Si        0.08117   0.58129   0.92005   1.390722  
         Si        Si        0.51402   0.01148   0.48582   1.390941  
         C         C         0.47902   0.97250   0.51843   -0.095945           
         C         C         0.61585   0.11799   0.38943   -0.099299           
         Si        Si        0.57969   0.07965   0.42151   1.392864  
         C         C         0.37433   0.00147   0.24869   -0.004821           
         C         C         0.12478   0.00201   0.75169   -0.003938           
         C         C         0.62628   0.49655   0.24704   -0.005833           
         C         C         0.87462   0.49927   0.75000   -0.003955           
         C         C         0.24992   0.37544   -0.00024  -0.003600           
         C         C         0.74978   0.12133   -0.00009  -0.001841           
         C         C         0.25242   0.62562   0.50049   -0.002903           
         C         C         0.74904   0.87380   0.49938   -0.002760           
         C         C         0.00135   0.25037   0.37643   -0.002272           
         C         C         -0.00075  0.74918   0.12670   -0.002091           
         C         C         0.49962   0.25153   0.62296   -0.002040           
         C         C         0.50063   0.74945   0.87286   -0.002662 

