
##########################################################################
#               Crystallographic Information Format file
#               Produced by PyCifRW module
#
#  This is a CIF file.  CIF has been adopted by the International
#  Union of Crystallography as the standard for data archiving and
#  transmission.
#
#  For information on this file format, follow the CIF links at
#  http://www.iucr.org
##########################################################################

data_image0

_cell_length_a                          46.009
_cell_length_b                          46.0161
_cell_length_c                          7.85512
_cell_angle_alpha                       121.11
_cell_angle_beta                        89.6387
_cell_angle_gamma                       90.2479
_symmetry_space_group_name_H-M          'P 1'
_space_group_name_Hall                  'P 1'
loop_
  _atom_site_type_symbol
  _atom_site_label
  _atom_site_fract_x
  _atom_site_fract_y
  _atom_site_fract_z
  _atom_site_charge
         N         N         0.50511   0.54255   0.23991   -0.368968           
         N         N         0.55791   0.54706   0.24630   -0.372090           
         C         C         0.56203   0.51876   0.24719   0.320534  
         C         C         0.59090   0.50613   0.24686   -0.034637           
         C         C         0.58694   0.47581   0.24750   -0.039637           
         C         C         0.55584   0.47095   0.24974   0.323219  
         C         C         0.61013   0.45618   0.24777   -0.185034           
         C         C         0.63726   0.46912   0.24569   0.172223  
         C         C         0.64127   0.49936   0.24379   0.170573  
         C         C         0.61849   0.51901   0.24465   -0.190986           
         O         O         0.67077   0.50527   0.24255   -0.345987           
         B         B         0.68452   0.47832   0.24601   0.606870  
         O         O         0.66408   0.45596   0.24865   -0.319073           
         N         N         0.94240   0.54473   0.25115   -0.372152           
         C         C         0.93796   0.51651   0.25298   0.321788  
         N         N         0.95853   0.49487   0.25677   -0.350378           
         C         C         0.94332   0.46890   0.25864   0.322770  
         C         C         0.91227   0.47393   0.25528   -0.038791           
         C         C         0.90892   0.50411   0.25250   -0.035147           
         C         C         0.88168   0.51713   0.24771   -0.190143           
         C         C         0.85850   0.49783   0.24732   0.170349  
         C         C         0.86176   0.46766   0.25065   0.170972  
         C         C         0.88861   0.45458   0.25500   -0.185671           
         C         C         0.98236   0.43843   0.26376   0.311608  
         C         C         0.98084   0.38205   0.26237   -0.178170           
         C         C         -0.00011  0.35816   0.25426   0.170769  
         N         N         0.95400   0.44264   0.26221   -0.372397           
         O         O         0.82923   0.50400   0.24328   -0.344890           
         B         B         0.81474   0.47728   0.24625   0.608259  
         C         C         0.78138   0.47569   0.24883   -0.263273           
         C         C         0.76510   0.44870   0.24272   0.165240  
         C         C         0.73456   0.50239   0.25918   -0.053888           
         C         C         0.76527   0.50215   0.25924   -0.050861           
         O         O         0.83453   0.45470   0.25062   -0.320638           
         H         H         0.60695   0.43312   0.25162   0.151281  
         H         H         0.62153   0.54228   0.24301   0.148952  
         H         H         0.89126   0.43156   0.25977   0.150936  
         H         H         0.87919   0.54009   0.24210   0.148806  
         H         H         0.72348   0.52376   0.26519   0.112931  
         H         H         0.77686   0.52336   0.26540   0.112633  
         N         N         0.72156   0.42167   0.23879   -0.348751           
         N         N         0.77642   0.42120   0.23824   -0.348218           
         S         S         0.74872   0.39870   0.23442   0.439613  
         C         C         0.55767   0.03306   0.24661   0.321800  
         C         C         0.58880   0.02833   0.25256   -0.039534           
         C         C         0.63941   0.03425   0.25669   0.171534  
         C         C         0.61260   0.04751   0.25250   -0.187331           
         H         H         0.61016   0.07048   0.24707   0.151103  
         N         N         0.54255   0.00692   0.24757   -0.350023           
         N         N         0.95562   0.05616   0.24925   -0.371625           
         C         C         0.94495   0.02974   0.25208   0.322763  
         N         N         0.95997   0.00384   0.25389   -0.350478           
         C         C         0.59218   0.99824   0.25622   -0.036858           
         O         O         0.67189   0.99781   0.26445   -0.343225           
         B         B         0.68642   0.02433   0.25978   0.607447  
         O         O         0.66668   0.04693   0.25474   -0.321259           
         C         C         0.91395   0.02469   0.25515   -0.038927           
         C         C         0.91019   0.99454   0.25776   -0.035153           
         C         C         0.93918   0.98212   0.25736   0.320704  
         C         C         0.88262   0.98178   0.26230   -0.190772           
         C         C         0.85978   0.00143   0.26337   0.170666  
         C         C         0.86368   0.03151   0.25963   0.170284  
         C         C         0.89075   0.04432   0.25518   -0.184699           
         O         O         0.83685   0.04473   0.25808   -0.319675           
         B         B         0.81650   0.02248   0.26237   0.607448  
         C         C         0.78324   0.02476   0.25820   -0.263299           
         C         C         0.76635   0.99902   0.25181   -0.049505           
         C         C         0.73565   -0.00052  0.25146   -0.051993           
         C         C         0.71979   0.02566   0.25673   -0.263504           
         C         C         0.73627   0.05229   0.25986   0.163746  
         O         O         0.83030   0.99561   0.26655   -0.344821           
         H         H         0.62162   0.96211   0.26702   0.149148  
         H         H         0.87962   0.95875   0.26646   0.150017  
         H         H         0.89389   0.06724   0.24990   0.151004  
         H         H         0.72390   0.97873   0.24963   0.113000  
         H         H         0.77726   0.97791   0.25009   0.112681  
         N         N         0.72514   0.07982   0.26380   -0.349780           
         N         N         0.77999   0.07918   0.26591   -0.346195           
         S         S         0.75299   0.10234   0.26999   0.437488  
         C         C         0.71784   0.47621   0.24910   -0.261531           
         C         C         0.73351   0.44896   0.24296   0.165520  
         C         C         0.76785   0.05191   0.26107   0.164307  
         N         N         0.49466   0.46128   0.25310   -0.369881           
         N         N         0.44198   0.45672   0.24811   -0.370996           
         C         C         0.43793   0.48485   0.24492   0.322870  
         C         C         0.40903   0.49693   0.24196   -0.036263           
         C         C         0.41264   0.52717   0.23980   -0.038279           
         C         C         0.44381   0.53254   0.23995   0.323222  
         C         C         0.38896   0.54589   0.23548   -0.185904           
         C         C         0.36205   0.53211   0.23421   0.171021  
         C         C         0.35854   0.50194   0.23754   0.170884  
         C         C         0.38173   0.48325   0.24163   -0.189203           
         O         O         0.32917   0.49499   0.23389   -0.344696           
         B         B         0.31492   0.52138   0.22711   0.608146  
         O         O         0.33493   0.54424   0.22610   -0.321608           
         N         N         0.05724   0.45384   0.25328   -0.371924           
         C         C         0.06175   0.48210   0.25200   0.322027  
         N         N         0.04102   0.50398   0.25181   -0.349253           
         C         C         0.05611   0.52988   0.24895   0.321232  
         C         C         0.08713   0.52465   0.24726   -0.038257           
         C         C         0.09079   0.49440   0.24888   -0.035311           
         C         C         0.11830   0.48133   0.24767   -0.190278           
         C         C         0.14119   0.50068   0.24405   0.169789  
         C         C         0.13748   0.53085   0.24136   0.172047  
         C         C         0.11041   0.54396   0.24231   -0.185279           
         C         C         0.01715   0.56068   0.24778   0.312270  
         C         C         0.01894   0.61699   0.24972   -0.178677           
         C         C         0.00001   0.64067   0.25435   0.173125  
         N         N         0.04547   0.55640   0.24815   -0.370711           
         O         O         0.17060   0.49432   0.24038   -0.344197           
         B         B         0.18464   0.52093   0.23348   0.606081  
         C         C         0.21798   0.52249   0.22463   -0.263455           
         C         C         0.23386   0.54939   0.22649   0.166472  
         C         C         0.26524   0.49664   0.21526   -0.052049           
         C         C         0.23451   0.49652   0.21698   -0.050913           
         O         O         0.16444   0.54359   0.23366   -0.320087           
         H         H         0.39157   0.56890   0.23040   0.150265  
         H         H         0.37930   0.46011   0.24552   0.149209  
         H         H         0.10728   0.56682   0.23649   0.150336  
         H         H         0.12127   0.45816   0.25028   0.149569  
         H         H         0.27664   0.47578   0.21323   0.113260  
         H         H         0.22330   0.47556   0.21616   0.112631  
         N         N         0.27701   0.57691   0.22821   -0.348247           
         N         N         0.22216   0.57672   0.23098   -0.348826           
         S         S         0.24951   0.59957   0.23385   0.439153  
         C         C         0.44520   0.96961   0.24062   0.325926  
         C         C         0.41411   0.97451   0.23894   -0.040995           
         C         C         0.36362   0.96842   0.24193   0.169832  
         C         C         0.39063   0.95525   0.24239   -0.183601           
         H         H         0.39346   0.93234   0.24805   0.151251  
         N         N         0.46021   0.99582   0.24011   -0.351704           
         N         N         0.04678   0.94309   0.26384   -0.370326           
         C         C         0.05749   0.96949   0.26077   0.321114  
         N         N         0.04234   0.99530   0.25836   -0.349732           
         C         C         0.41046   0.00472   0.23686   -0.034851           
         O         O         0.33063   0.00485   0.23934   -0.344802           
         B         B         0.31646   0.97830   0.24612   0.607541  
         O         O         0.33653   0.95572   0.24803   -0.319996           
         C         C         0.08857   0.97487   0.25892   -0.038995           
         C         C         0.09201   0.00509   0.25630   -0.037111           
         C         C         0.06299   0.01716   0.25557   0.322960  
         C         C         0.11929   0.01848   0.25307   -0.191028           
         C         C         0.14248   -0.00058  0.25353   0.171277  
         C         C         0.13904   0.96925   0.25695   0.171395  
         C         C         0.11218   0.95586   0.26031   -0.185412           
         O         O         0.16613   0.95652   0.25864   -0.318878           
         B         B         0.18613   0.97908   0.25429   0.606510  
         C         C         0.21950   0.97717   0.25601   -0.262694           
         C         C         0.23609   0.00304   0.26142   -0.051796           
         C         C         0.26681   0.00284   0.25995   -0.053116           
         C         C         0.28310   0.97672   0.25237   -0.262517           
         C         C         0.26696   0.94988   0.24909   0.165281  
         O         O         0.17184   0.00578   0.25080   -0.345303           
         H         H         0.38028   0.04083   0.23147   0.148569  
         H         H         0.12174   0.04151   0.24789   0.149384  
         H         H         0.10962   0.93291   0.26613   0.151256  
         H         H         0.27826   0.02376   0.26189   0.112874  
         H         H         0.22490   0.02403   0.26368   0.112661  
         N         N         0.27841   0.92238   0.24392   -0.346585           
         N         N         0.22355   0.92282   0.24745   -0.349870           
         S         S         0.25082   0.89980   0.24089   0.439968  
         C         C         0.28156   0.52271   0.22106   -0.262847           
         C         C         0.26548   0.54950   0.22480   0.164484  
         C         C         0.23534   0.95013   0.25114   0.165250  
         Ni        Ni        -0.00025  0.49949   0.25518   0.467263  
         Ni        Ni        0.00114   -0.00049  0.25605   0.467523  
         N         N         0.45875   0.50658   0.24262   -0.350441           
         N         N         0.45488   0.55888   0.23761   -0.374533           
         C         C         0.48330   0.56310   0.23677   0.311148  
         C         C         0.49600   0.59201   0.23657   -0.038687           
         C         C         0.52644   0.58879   0.24251   -0.038595           
         C         C         0.53142   0.55778   0.24358   0.314068  
         C         C         0.54609   0.61273   0.24926   -0.172043           
         C         C         0.53309   0.63977   0.24853   0.167384  
         C         C         0.50263   0.64291   0.24195   0.168403  
         C         C         0.48304   0.61945   0.23587   -0.177417           
         O         O         0.49654   0.67220   0.24128   -0.345330           
         B         B         0.52378   0.68661   0.24529   0.588084  
         O         O         0.54648   0.66696   0.25090   -0.320915           
         N         N         0.45609   0.94320   0.24178   -0.372511           
         C         C         0.48446   0.93949   0.24588   0.313396  
         N         N         0.50630   0.96076   0.24987   -0.370695           
         C         C         0.53249   0.94614   0.25290   0.316673  
         C         C         0.52737   0.91494   0.25166   -0.040259           
         C         C         0.49696   0.91071   0.24680   -0.039448           
         C         C         0.48366   0.88276   0.24075   -0.179484           
         C         C         0.50303   0.85978   0.24031   0.172756  
         C         C         0.53353   0.86399   0.24540   0.169921  
         C         C         0.54684   0.89154   0.25121   -0.170814           
         C         C         0.56321   0.98564   0.25381   0.322960  
         C         C         0.61934   0.98510   0.26160   -0.188969           
         C         C         0.64263   0.00418   0.26120   0.170809  
         N         N         0.55899   0.95741   0.25585   -0.370624           
         O         O         0.49668   0.83015   0.23693   -0.345397           
         B         B         0.52383   0.81652   0.24174   0.586524  
         C         C         0.52604   0.78321   0.24218   -0.262215           
         C         C         0.55261   0.76818   0.25185   0.175173  
         C         C         0.50063   0.73502   0.23090   -0.056785           
         C         C         0.50063   0.76578   0.23198   -0.050200           
         O         O         0.54667   0.83707   0.24584   -0.319327           
         H         H         0.56947   0.61009   0.25398   0.155043  
         H         H         0.45965   0.62180   0.22944   0.151633  
         H         H         0.57026   0.89489   0.25618   0.154694  
         H         H         0.46022   0.87972   0.23829   0.152628  
         H         H         0.47994   0.72272   0.22152   0.117552  
         H         H         0.47992   0.77634   0.22397   0.115838  
         N         N         0.57960   0.72610   0.26283   -0.343157           
         N         N         0.57961   0.78089   0.26252   -0.347019           
         S         S         0.60187   0.75440   0.27174   0.436054  
         C         C         0.96903   0.55545   0.25036   0.316647  
         C         C         0.97462   0.58651   0.25036   -0.042032           
         C         C         0.96945   0.63766   0.25731   0.167926  
         C         C         0.95562   0.61070   0.25556   -0.171805           
         H         H         0.93215   0.60832   0.25677   0.156145  
         N         N         0.99507   0.54010   0.24860   -0.370733           
         N         N         0.94361   0.95395   0.25928   -0.370718           
         C         C         0.97025   0.94346   0.26068   0.313339  
         N         N         0.99636   0.95895   0.26314   -0.369723           
         C         C         0.00509   0.58967   0.24799   -0.039639           
         O         O         0.00688   0.66996   0.25511   -0.344376           
         B         B         0.97995   0.68459   0.25693   0.586607  
         O         O         0.95678   0.66499   0.25923   -0.321580           
         C         C         0.97571   0.91248   0.26117   -0.040766           
         C         C         0.00619   0.90958   0.26565   -0.037898           
         C         C         0.01842   0.93863   0.26544   0.309523  
         C         C         0.01975   0.88227   0.26437   -0.179114           
         C         C         0.00059   0.85846   0.25814   0.172356  
         C         C         0.97006   0.86126   0.25319   0.166828  
         C         C         0.95650   0.88817   0.25430   -0.173265           
         O         O         0.95712   0.83378   0.24967   -0.321834           
         B         B         0.98016   0.81427   0.25269   0.588335  
         C         C         0.97822   0.78102   0.25386   -0.263277           
         C         C         0.00370   0.76485   0.25547   -0.053955           
         C         C         0.00362   0.73415   0.25476   -0.051018           
         C         C         0.97808   0.71778   0.25537   -0.262071           
         C         C         0.95151   0.73361   0.25467   0.170335  
         O         O         0.00716   0.82911   0.25679   -0.344843           
         H         H         0.04243   0.61899   0.24590   0.152485  
         H         H         0.04321   0.88033   0.26943   0.152558  
         H         H         0.93305   0.89042   0.25113   0.155874  
         H         H         0.02431   0.72269   0.25394   0.116425  
         H         H         0.02448   0.77638   0.25666   0.116721  
         N         N         0.92441   0.72191   0.25464   -0.341855           
         N         N         0.92455   0.77630   0.25011   -0.341583           
         S         S         0.90223   0.74895   0.25104   0.444671  
         C         C         0.52604   0.71967   0.24167   -0.260481           
         C         C         0.55262   0.73662   0.25147   0.173731  
         C         C         0.95159   0.76495   0.25293   0.170557  
         N         N         0.54106   0.49707   0.24858   -0.349101           
         N         N         0.54483   0.44466   0.25254   -0.370534           
         C         C         0.51645   0.44068   0.25495   0.312398  
         C         C         0.50395   0.41181   0.25579   -0.038844           
         C         C         0.47352   0.41501   0.25245   -0.041952           
         C         C         0.46841   0.44601   0.25106   0.315726  
         C         C         0.45418   0.39084   0.24672   -0.172173           
         C         C         0.46762   0.36371   0.24434   0.169706  
         C         C         0.49814   0.36074   0.24842   0.175377  
         C         C         0.51737   0.38445   0.25445   -0.178499           
         O         O         0.50472   0.33140   0.24706   -0.344369           
         B         B         0.47769   0.31655   0.24327   0.586460  
         O         O         0.45469   0.33620   0.24086   -0.322247           
         N         N         0.54677   0.05906   0.24108   -0.372865           
         C         C         0.51837   0.06274   0.23589   0.311813  
         N         N         0.49644   0.04188   0.23602   -0.370119           
         C         C         0.47022   0.05679   0.23648   0.313026  
         C         C         0.47545   0.08794   0.23690   -0.039795           
         C         C         0.50591   0.09151   0.23449   -0.037048           
         C         C         0.51921   0.11916   0.23653   -0.180651           
         C         C         0.49986   0.14260   0.24183   0.170653  
         C         C         0.46938   0.13921   0.24575   0.167232  
         C         C         0.45604   0.11193   0.24333   -0.172408           
         C         C         0.43942   0.01737   0.23709   0.321663  
         C         C         0.38304   0.01776   0.23541   -0.188684           
         C         C         0.36002   0.99851   0.23810   0.170005  
         N         N         0.44368   0.04570   0.23629   -0.371835           
         O         O         0.50624   0.17207   0.24293   -0.345451           
         B         B         0.47909   0.18643   0.24634   0.587792  
         C         C         0.47669   0.21962   0.24408   -0.261055           
         C         C         0.44992   0.23602   0.25344   0.172606  
         C         C         0.50146   0.26631   0.23462   -0.050531           
         C         C         0.50189   0.23558   0.23378   -0.055848           
         O         O         0.45623   0.16648   0.24917   -0.321422           
         H         H         0.43074   0.39338   0.24557   0.155255  
         H         H         0.54081   0.38234   0.25921   0.151846  
         H         H         0.43262   0.10915   0.24549   0.155810  
         H         H         0.54264   0.12167   0.23259   0.152586  
         H         H         0.52203   0.27742   0.22762   0.115558  
         H         H         0.52277   0.22384   0.22506   0.116966  
         N         N         0.42229   0.27953   0.26276   -0.344997           
         N         N         0.42307   0.22500   0.26574   -0.341216           
         S         S         0.40044   0.25270   0.27387   0.440792  
         C         C         0.03056   0.44334   0.25648   0.315035  
         C         C         0.02500   0.41228   0.25652   -0.038523           
         C         C         0.03042   0.36091   0.24651   0.167902  
         C         C         0.04409   0.38783   0.24707   -0.174378           
         H         H         0.06755   0.38995   0.24130   0.156182  
         N         N         0.00447   0.45884   0.26085   -0.370241           
         N         N         0.05863   0.04533   0.25352   -0.371892           
         C         C         0.03203   0.05574   0.25142   0.317190  
         N         N         0.00597   0.04014   0.24897   -0.370219           
         C         C         0.99451   0.40939   0.26319   -0.039818           
         O         O         0.99322   0.32882   0.25372   -0.344652           
         B         B         0.02023   0.31399   0.24752   0.588572  
         O         O         0.04325   0.33341   0.24174   -0.322050           
         C         C         0.02655   0.08672   0.25074   -0.040589           
         C         C         0.99608   0.08956   0.24711   -0.039280           
         C         C         0.98395   0.06051   0.24734   0.310926  
         C         C         0.98234   0.11677   0.24858   -0.178515           
         C         C         0.00133   0.14059   0.25375   0.173981  
         C         C         0.03189   0.13787   0.25731   0.167543  
         C         C         0.04563   0.11106   0.25648   -0.171203           
         O         O         0.04458   0.16530   0.25896   -0.321452           
         B         B         0.02139   0.18468   0.25632   0.586443  
         C         C         0.02303   0.21785   0.25393   -0.262612           
         C         C         0.99738   0.23399   0.25530   -0.052625           
         C         C         0.99709   0.26458   0.25464   -0.053299           
         C         C         0.02242   0.28089   0.25005   -0.263760           
         C         C         0.04919   0.26506   0.24728   0.172342  
         O         O         0.99448   0.16984   0.25476   -0.345229           
         H         H         0.95738   0.38014   0.26925   0.152243  
         H         H         0.95886   0.11864   0.24408   0.152610  
         H         H         0.06911   0.10892   0.25922   0.155354  
         H         H         0.97626   0.27594   0.25721   0.116511  
         H         H         0.97675   0.22252   0.25751   0.116866  
         N         N         0.07614   0.27652   0.24127   -0.341578           
         N         N         0.07663   0.22227   0.24739   -0.342496           
         S         S         0.09865   0.24936   0.24059   0.441585  
         C         C         0.47584   0.28312   0.24330   -0.261733           
         C         C         0.44948   0.26747   0.25243   0.172206  
         C         C         0.04947   0.23381   0.25000   0.172375  
         Ni        Ni        0.50138   0.00133   0.24334   0.467978  
         Ni        Ni        0.49990   0.50186   0.24557   0.467251  
         N         N         0.50433   0.53875   0.74047   -0.370734           
         N         N         0.55707   0.54287   0.74389   -0.371159           
         C         C         0.56093   0.51450   0.74452   0.322470  
         C         C         0.58976   0.50184   0.74382   -0.036300           
         C         C         0.58594   0.47160   0.74578   -0.038471           
         C         C         0.55471   0.46684   0.74871   0.321246  
         C         C         0.60944   0.45230   0.74661   -0.185199           
         C         C         0.63650   0.46564   0.74572   0.171612  
         C         C         0.64018   0.49582   0.74260   0.170801  
         C         C         0.61718   0.51495   0.74092   -0.188931           
         O         O         0.66957   0.50223   0.74215   -0.344375           
         B         B         0.68373   0.47558   0.74662   0.607799  
         O         O         0.66360   0.45300   0.74984   -0.321595           
         N         N         0.94118   0.54571   0.75022   -0.372532           
         C         C         0.93701   0.51749   0.75255   0.321944  
         N         N         0.95787   0.49605   0.75579   -0.349267           
         C         C         0.94297   0.46991   0.75782   0.322333  
         C         C         0.91182   0.47458   0.75457   -0.037123           
         C         C         0.90808   0.50476   0.75224   -0.036704           
         C         C         0.88062   0.51744   0.74761   -0.190775           
         C         C         0.85764   0.49780   0.74625   0.170784  
         C         C         0.86133   0.46766   0.74932   0.171901  
         C         C         0.88836   0.45494   0.75396   -0.184962           
         C         C         0.98243   0.43993   0.76276   0.310793  
         C         C         0.98190   0.38357   0.76296   -0.178485           
         C         C         0.00141   0.36008   0.75540   0.173189  
         N         N         0.95402   0.44379   0.76146   -0.370989           
         O         O         0.82822   0.50359   0.74237   -0.345608           
         B         B         0.81410   0.47665   0.74560   0.607873  
         C         C         0.78073   0.47437   0.74900   -0.261605           
         C         C         0.76484   0.44724   0.74475   0.165103  
         C         C         0.73342   0.50008   0.75780   -0.052012           
         C         C         0.76413   0.50034   0.75738   -0.052111           
         O         O         0.83427   0.45437   0.74963   -0.321044           
         H         H         0.60661   0.42913   0.74984   0.150640  
         H         H         0.61990   0.53796   0.73588   0.148630  
         H         H         0.89126   0.43195   0.75879   0.150450  
         H         H         0.87782   0.54047   0.74324   0.148802  
         H         H         0.72198   0.52105   0.76155   0.112431  
         H         H         0.77529   0.52159   0.76142   0.112851  
         N         N         0.72170   0.41950   0.74098   -0.347888           
         N         N         0.77656   0.41999   0.74106   -0.347571           
         S         S         0.74924   0.39700   0.73706   0.437742  
         C         C         0.55526   0.02875   0.74679   0.322338  
         C         C         0.58628   0.02376   0.75207   -0.038342           
         C         C         0.63678   0.02959   0.75447   0.171765  
         C         C         0.61000   0.04282   0.75034   -0.184456           
         H         H         0.60750   0.06563   0.74319   0.150821  
         N         N         0.53996   0.00283   0.74851   -0.350478           
         N         N         0.95390   0.05848   0.74937   -0.371918           
         C         C         0.94293   0.03215   0.75221   0.322562  
         N         N         0.95801   0.00612   0.75329   -0.350506           
         C         C         0.58957   0.99370   0.75622   -0.036265           
         O         O         0.66941   0.99319   0.76112   -0.344335           
         B         B         0.68382   0.01984   0.75653   0.606741  
         O         O         0.66394   0.04223   0.75111   -0.320580           
         C         C         0.91178   0.02693   0.75552   -0.038578           
         C         C         0.90839   0.99669   0.75777   -0.037592           
         C         C         0.93733   0.98439   0.75659   0.323054  
         C         C         0.88123   0.98323   0.76258   -0.190117           
         C         C         0.85791   0.00222   0.76380   0.170294  
         C         C         0.86115   0.03241   0.76033   0.171850  
         C         C         0.88795   0.04590   0.75576   -0.186307           
         O         O         0.83390   0.04487   0.75862   -0.321283           
         B         B         0.81411   0.02205   0.76244   0.608132  
         C         C         0.78073   0.02322   0.75818   -0.264201           
         C         C         0.76455   0.99701   0.75190   -0.050809           
         C         C         0.73383   0.99643   0.75035   -0.054856           
         C         C         0.71717   0.02208   0.75526   -0.261372           
         C         C         0.73291   0.04931   0.75985   0.166184  
         O         O         0.82861   0.99558   0.76667   -0.343803           
         H         H         0.61917   0.95755   0.76616   0.149645  
         H         H         0.87902   0.96010   0.76684   0.149615  
         H         H         0.89038   0.06885   0.74983   0.150720  
         H         H         0.72274   0.97530   0.74828   0.113835  
         H         H         0.77607   0.97631   0.75093   0.113008  
         N         N         0.72106   0.07652   0.76364   -0.344872           
         N         N         0.77592   0.07733   0.76475   -0.350760           
         S         S         0.74828   0.09969   0.76864   0.439092  
         C         C         0.71709   0.47385   0.74997   -0.261508           
         C         C         0.73320   0.44696   0.74495   0.163642  
         C         C         0.76452   0.04982   0.76075   0.164796  
         N         N         0.49319   0.45762   0.75305   -0.369451           
         N         N         0.44038   0.45330   0.74684   -0.372561           
         C         C         0.43642   0.48144   0.74357   0.320748  
         C         C         0.40763   0.49399   0.73960   -0.033863           
         C         C         0.41187   0.52434   0.73961   -0.039660           
         C         C         0.44302   0.52923   0.74085   0.322672  
         C         C         0.38890   0.54408   0.73734   -0.184638           
         C         C         0.36160   0.53121   0.73636   0.171577  
         C         C         0.35726   0.50089   0.73685   0.171561  
         C         C         0.37985   0.48114   0.73812   -0.191178           
         O         O         0.32770   0.49494   0.73384   -0.346172           
         B         B         0.31424   0.52197   0.72943   0.607724  
         O         O         0.33491   0.54445   0.73077   -0.320616           
         N         N         0.05705   0.45636   0.75216   -0.370695           
         C         C         0.06122   0.48473   0.75176   0.322367  
         N         N         0.04034   0.50640   0.75141   -0.350857           
         C         C         0.05521   0.53260   0.75010   0.323388  
         C         C         0.08635   0.52769   0.75007   -0.039861           
         C         C         0.09014   0.49730   0.74982   -0.035482           
         C         C         0.11762   0.48414   0.74844   -0.188613           
         C         C         0.14056   0.50351   0.74593   0.171040  
         C         C         0.13681   0.53395   0.74619   0.170689  
         C         C         0.10974   0.54722   0.74834   -0.186173           
         C         C         0.01577   0.56268   0.74634   0.311072  
         C         C         0.01662   0.61913   0.74885   -0.178723           
         C         C         0.99732   0.64258   0.75403   0.170029  
         N         N         0.04417   0.55888   0.74836   -0.372919           
         O         O         0.16997   0.49702   0.74125   -0.344197           
         B         B         0.18402   0.52383   0.73650   0.608199  
         C         C         0.21737   0.52502   0.72566   -0.262092           
         C         C         0.23372   0.55159   0.72714   0.164103  
         C         C         0.26416   0.49816   0.71456   -0.051044           
         C         C         0.23346   0.49865   0.71656   -0.052081           
         O         O         0.16382   0.54679   0.74013   -0.320700           
         H         H         0.39236   0.56719   0.73439   0.150638  
         H         H         0.37651   0.45788   0.73953   0.149731  
         H         H         0.10675   0.57045   0.74641   0.151203  
         H         H         0.12046   0.46092   0.75077   0.149018  
         H         H         0.27517   0.47704   0.71197   0.113136  
         H         H         0.22185   0.47790   0.71544   0.113019  
         N         N         0.27733   0.57824   0.72749   -0.347408           
         N         N         0.22247   0.57910   0.73153   -0.348964           
         S         S         0.25021   0.60142   0.73344   0.437210  
         C         C         0.44228   0.96670   0.74126   0.322802  
         C         C         0.41124   0.97199   0.73904   -0.039838           
         C         C         0.36070   0.96636   0.73843   0.172451  
         C         C         0.38749   0.95275   0.73866   -0.185800           
         H         H         0.39003   0.92952   0.74121   0.151698  
         N         N         0.45757   0.99289   0.74230   -0.350670           
         N         N         0.04430   0.94445   0.76341   -0.369636           
         C         C         0.05513   0.97082   0.76044   0.322244  
         N         N         0.04029   0.99677   0.75792   -0.350394           
         C         C         0.40797   0.00251   0.73999   -0.037385           
         O         O         0.32816   0.00367   0.74099   -0.345177           
         B         B         0.31370   0.97685   0.74324   0.606929  
         O         O         0.33348   0.95374   0.74156   -0.320117           
         C         C         0.08619   0.97579   0.75853   -0.039518           
         C         C         0.09010   0.00595   0.75603   -0.035966           
         C         C         0.06121   0.01844   0.75536   0.321783  
         C         C         0.11770   0.01871   0.75293   -0.191163           
         C         C         0.14044   0.99911   0.75315   0.170816  
         C         C         0.13645   0.96898   0.75644   0.169873  
         C         C         0.10931   0.95621   0.75989   -0.184238           
         O         O         0.16328   0.95574   0.75850   -0.318655           
         B         B         0.18365   0.97805   0.75467   0.607238  
         C         C         0.21694   0.97593   0.75643   -0.263304           
         C         C         0.23345   0.00180   0.76128   -0.051371           
         C         C         0.26414   0.00153   0.75837   -0.052139           
         C         C         0.28039   0.97541   0.75080   -0.263904           
         C         C         0.26430   0.94866   0.74932   0.162985  
         O         O         0.16990   0.00499   0.75127   -0.344366           
         H         H         0.37841   0.03945   0.73846   0.149333  
         H         H         0.12083   0.04173   0.74862   0.149449  
         H         H         0.10604   0.93336   0.76586   0.151112  
         H         H         0.27559   0.02233   0.75877   0.113322  
         H         H         0.22223   0.02284   0.76421   0.112639  
         N         N         0.27579   0.92121   0.74454   -0.347527           
         N         N         0.22094   0.92157   0.74827   -0.347584           
         S         S         0.24826   0.89858   0.74162   0.438967  
         C         C         0.28096   0.52403   0.72155   -0.262604           
         C         C         0.26535   0.55110   0.72494   0.165006  
         C         C         0.23271   0.94888   0.75167   0.165736  
         Ni        Ni        0.99911   0.50127   0.75380   0.467499  
         Ni        Ni        0.99917   0.00138   0.75474   0.466950  
         N         N         0.45757   0.50315   0.74373   -0.349179           
         N         N         0.45426   0.55549   0.73872   -0.372082           
         C         C         0.48268   0.55941   0.73798   0.312482  
         C         C         0.49535   0.58823   0.73765   -0.039057           
         C         C         0.52575   0.58502   0.74292   -0.041582           
         C         C         0.53067   0.55391   0.74326   0.317023  
         C         C         0.54522   0.60914   0.74968   -0.172031           
         C         C         0.53194   0.63607   0.74908   0.167672  
         C         C         0.50146   0.63901   0.74268   0.174979  
         C         C         0.48207   0.61547   0.73707   -0.180426           
         O         O         0.49507   0.66814   0.74169   -0.345764           
         B         B         0.52217   0.68283   0.74560   0.587650  
         O         O         0.54508   0.66339   0.75133   -0.321454           
         N         N         0.45284   0.94019   0.74269   -0.372257           
         C         C         0.48116   0.93610   0.74754   0.313380  
         N         N         0.50327   0.95703   0.75048   -0.369745           
         C         C         0.52930   0.94208   0.75282   0.311830  
         C         C         0.52378   0.91090   0.75115   -0.038626           
         C         C         0.49330   0.90712   0.74834   -0.038077           
         C         C         0.47977   0.87919   0.74187   -0.180184           
         C         C         0.49894   0.85579   0.73900   0.170009  
         C         C         0.52946   0.85963   0.74194   0.167838  
         C         C         0.54302   0.88704   0.74750   -0.173417           
         C         C         0.56049   0.98129   0.75429   0.320525  
         C         C         0.61678   0.98052   0.76071   -0.189710           
         C         C         0.64006   -0.00043  0.75943   0.168708  
         N         N         0.55596   0.95308   0.75575   -0.370338           
         O         O         0.49247   0.82603   0.73470   -0.345350           
         B         B         0.51959   0.81218   0.73751   0.588757  
         C         C         0.52224   0.77907   0.73970   -0.263251           
         C         C         0.54920   0.76466   0.74860   0.170166  
         C         C         0.49798   0.73088   0.73425   -0.052191           
         C         C         0.49719   0.76146   0.73378   -0.052137           
         O         O         0.54248   0.83255   0.74084   -0.320994           
         H         H         0.56863   0.60676   0.75407   0.155489  
         H         H         0.45866   0.61755   0.73061   0.152380  
         H         H         0.56648   0.88993   0.74951   0.157026  
         H         H         0.45630   0.87648   0.74046   0.151968  
         H         H         0.47757   0.71830   0.72738   0.116177  
         H         H         0.47618   0.77173   0.72816   0.115715  
         N         N         0.57731   0.72339   0.76062   -0.341993           
         N         N         0.57594   0.77780   0.75636   -0.342656           
         S         S         0.59884   0.75195   0.76594   0.444199  
         C         C         0.96766   0.55674   0.74855   0.315917  
         C         C         0.97280   0.58785   0.74805   -0.040594           
         C         C         0.96682   0.63902   0.75582   0.169480  
         C         C         0.95343   0.61172   0.75289   -0.171576           
         H         H         0.92999   0.60885   0.75354   0.155295  
         N         N         0.99394   0.54182   0.74719   -0.369982           
         N         N         0.94145   0.95612   0.75806   -0.371682           
         C         C         0.96792   0.94540   0.75976   0.317866  
         N         N         0.99411   0.96073   0.76212   -0.370846           
         C         C         0.00325   0.59150   0.74616   -0.038302           
         O         O         0.00375   0.67216   0.75677   -0.345575           
         B         B         0.97663   0.68637   0.75806   0.587314  
         O         O         0.95378   0.66628   0.75858   -0.321513           
         C         C         0.97306   0.91441   0.76077   -0.041189           
         C         C         0.00348   0.91129   0.76534   -0.038598           
         C         C         0.01594   0.94022   0.76470   0.310422  
         C         C         0.01680   0.88395   0.76503   -0.178150           
         C         C         0.99747   0.86030   0.75917   0.172288  
         C         C         0.96699   0.86327   0.75342   0.169462  
         C         C         0.95365   0.89027   0.75412   -0.172522           
         O         O         0.95390   0.83581   0.74934   -0.321058           
         B         B         0.97674   0.81619   0.75343   0.587591  
         C         C         0.97448   0.78288   0.75420   -0.262265           
         C         C         -0.00007  0.76668   0.75575   -0.053433           
         C         C         -0.00009  0.73606   0.75618   -0.053318           
         C         C         0.97443   0.71960   0.75660   -0.261183           
         C         C         0.94781   0.73534   0.75522   0.174244  
         O         O         0.00388   0.83095   0.75829   -0.344811           
         H         H         0.04008   0.62157   0.74558   0.152389  
         H         H         0.04023   0.88180   0.77043   0.153029  
         H         H         0.93024   0.89269   0.75004   0.155319  
         H         H         0.02065   0.72479   0.75661   0.117021  
         H         H         0.02068   0.77818   0.75633   0.116803  
         N         N         0.92077   0.72360   0.75552   -0.343788           
         N         N         0.92078   0.77806   0.75145   -0.346130           
         S         S         0.89846   0.75066   0.75263   0.434254  
         C         C         0.52382   0.71597   0.74299   -0.262390           
         C         C         0.55000   0.73333   0.75055   0.173043  
         C         C         0.94784   0.76673   0.75359   0.176476  
         N         N         0.53995   0.49305   0.74797   -0.349728           
         N         N         0.54341   0.44070   0.75176   -0.372309           
         C         C         0.51495   0.43695   0.75463   0.309900  
         C         C         0.50233   0.40816   0.75541   -0.037422           
         C         C         0.47187   0.41147   0.75220   -0.038506           
         C         C         0.46682   0.44252   0.75092   0.314267  
         C         C         0.45256   0.38728   0.74633   -0.172980           
         C         C         0.46598   0.36022   0.74491   0.167890  
         C         C         0.49647   0.35717   0.74876   0.170082  
         C         C         0.51574   0.38077   0.75378   -0.179003           
         O         O         0.50299   0.32782   0.74730   -0.343998           
         B         B         0.47599   0.31306   0.74386   0.588714  
         O         O         0.45305   0.33273   0.74155   -0.322081           
         N         N         0.54472   0.05494   0.74148   -0.371021           
         C         C         0.51641   0.05904   0.73702   0.310599  
         N         N         0.49430   0.03841   0.73756   -0.369091           
         C         C         0.46828   0.05372   0.73920   0.315426  
         C         C         0.47376   0.08474   0.73894   -0.039755           
         C         C         0.50424   0.08796   0.73550   -0.039137           
         C         C         0.51775   0.11535   0.73586   -0.178400           
         C         C         0.49857   0.13895   0.74115   0.173541  
         C         C         0.46804   0.13591   0.74685   0.169468  
         C         C         0.45452   0.10885   0.74553   -0.172599           
         C         C         0.43706   0.01480   0.74087   0.322038  
         C         C         0.38077   0.01607   0.73947   -0.189824           
         C         C         0.35747   0.99689   0.73911   0.170663  
         N         N         0.44162   0.04313   0.74058   -0.370327           
         O         O         0.50505   0.16827   0.74091   -0.345468           
         B         B         0.47800   0.18289   0.74556   0.586546  
         C         C         0.47563   0.21614   0.74434   -0.261305           
         C         C         0.44873   0.23216   0.75157   0.174483  
         C         C         0.50015   0.26330   0.73830   -0.054089           
         C         C         0.50075   0.23256   0.73743   -0.053203           
         O         O         0.45505   0.16324   0.75048   -0.321336           
         H         H         0.42913   0.38968   0.74390   0.155333  
         H         H         0.53918   0.37854   0.75737   0.152312  
         H         H         0.43107   0.10640   0.74847   0.155308  
         H         H         0.54121   0.11750   0.73046   0.152249  
         H         H         0.52065   0.27474   0.73325   0.116412  
         H         H         0.52173   0.22120   0.73133   0.116730  
         N         N         0.42088   0.27530   0.75833   -0.344629           
         N         N         0.42192   0.22061   0.75960   -0.342274           
         S         S         0.39913   0.24799   0.76508   0.436993  
         C         C         0.03053   0.44548   0.75496   0.315374  
         C         C         0.02547   0.41434   0.75478   -0.041182           
         C         C         0.03186   0.36319   0.74630   0.169240  
         C         C         0.04502   0.39023   0.74516   -0.171697           
         H         H         0.06841   0.39265   0.73740   0.155168  
         N         N         0.00425   0.46068   0.75990   -0.369546           
         N         N         0.05701   0.04665   0.75351   -0.371259           
         C         C         0.03047   0.05734   0.75149   0.312270  
         N         N         0.00422   0.04204   0.74853   -0.368615           
         C         C         0.99504   0.41104   0.76218   -0.038696           
         O         O         0.99529   0.33077   0.75623   -0.346820           
         B         B         0.02242   0.31616   0.74887   0.588394  
         O         O         0.04507   0.33591   0.74189   -0.321321           
         C         C         0.02531   0.08838   0.75125   -0.038855           
         C         C         0.99487   0.09162   0.74692   -0.038721           
         C         C         0.98232   0.06265   0.74705   0.311339  
         C         C         0.98169   0.11909   0.74748   -0.178873           
         C         C         0.00115   0.14256   0.75228   0.170638  
         C         C         0.03160   0.13945   0.75786   0.168082  
         C         C         0.04481   0.11245   0.75790   -0.172856           
         O         O         0.04483   0.16663   0.75971   -0.321599           
         B         B         0.02215   0.18629   0.75436   0.588901  
         C         C         0.02450   0.21944   0.75133   -0.262020           
         C         C         0.99910   0.23597   0.75292   -0.053724           
         C         C         0.99915   0.26666   0.75319   -0.054111           
         C         C         0.02463   0.28287   0.74990   -0.261064           
         C         C         0.05120   0.26668   0.74697   0.175111  
         O         O         0.99498   0.17179   0.75090   -0.346399           
         H         H         0.95850   0.38121   0.77088   0.152365  
         H         H         0.95828   0.12142   0.74236   0.152473  
         H         H         0.06821   0.10995   0.76175   0.156115  
         H         H         0.97842   0.27822   0.75603   0.116544  
         H         H         0.97834   0.22475   0.75530   0.116676  
         N         N         0.07828   0.27804   0.74323   -0.344322           
         N         N         0.07816   0.22349   0.74613   -0.343378           
         S         S         0.10052   0.25060   0.74245   0.436027  
         C         C         0.47438   0.27967   0.74448   -0.262026           
         C         C         0.44813   0.26366   0.75143   0.173108  
         C         C         0.05113   0.23523   0.74804   0.174028  
         Ni        Ni        0.49876   0.99782   0.74489   0.467141  
         Ni        Ni        0.49873   0.49820   0.74708   0.467632 

