
##########################################################################
#               Crystallographic Information Format file
#               Produced by PyCifRW module
#
#  This is a CIF file.  CIF has been adopted by the International
#  Union of Crystallography as the standard for data archiving and
#  transmission.
#
#  For information on this file format, follow the CIF links at
#  http://www.iucr.org
##########################################################################

data_image0

_cell_length_a                          50.3849
_cell_length_b                          50.3731
_cell_length_c                          8.13416
_cell_angle_alpha                       89.9947
_cell_angle_beta                        90.2652
_cell_angle_gamma                       90.2703
_symmetry_space_group_name_H-M          'P 1'
_space_group_name_Hall                  'P 1'
loop_
  _atom_site_type_symbol
  _atom_site_label
  _atom_site_fract_x
  _atom_site_fract_y
  _atom_site_fract_z
  _atom_site_charge
         C         C         0.47427   0.64151   0.13631   -0.191930           
         C         C         0.45502   0.66080   0.14053   -0.193826           
         C         C         0.46250   0.61691   0.18689   0.183272  
         C         C         0.43074   0.64874   0.19371   0.182824  
         N         N         0.43608   0.62213   0.21560   -0.255927           
         C         C         0.46149   0.56813   0.24078   0.192714  
         C         C         0.47432   0.54369   0.29395   -0.189513           
         C         C         0.45508   0.52464   0.29623   -0.189042           
         C         C         0.43065   0.53749   0.24304   0.194330  
         N         N         0.43479   0.56413   0.21700   -0.405419           
         C         C         0.38195   0.53677   0.18579   0.185783  
         C         C         0.35753   0.52515   0.13026   -0.189345           
         C         C         0.33825   0.54440   0.13385   -0.188884           
         C         C         0.35014   0.56855   0.19145   0.185821  
         N         N         0.37668   0.56315   0.21644   -0.256047           
         C         C         0.35137   0.61692   0.25675   0.196148  
         C         C         0.33886   0.64125   0.31392   -0.189534           
         C         C         0.35805   0.66034   0.31285   -0.187461           
         C         C         0.38224   0.64757   0.25610   0.192263  
         N         N         0.37797   0.62097   0.22942   -0.404417           
         C         C         0.33751   0.59293   0.22472   -0.075988           
         C         C         0.40642   0.52390   0.21345   -0.075800           
         C         C         0.47518   0.59230   0.21181   -0.075224           
         C         C         0.40631   0.66130   0.22541   -0.073172           
         H         H         0.31761   0.54220   0.09952   0.129487  
         H         H         0.35517   0.50471   0.09234   0.129775  
         H         H         0.45720   0.50404   0.33119   0.122522  
         H         H         0.49506   0.54146   0.32556   0.122496  
         H         H         0.49481   0.64393   0.10118   0.134632  
         H         H         0.45730   0.68156   0.10965   0.135702  
         H         H         0.35612   0.68097   0.34718   0.121399  
         H         H         0.31835   0.64342   0.35001   0.121657  
         C         C         0.50456   0.59202   0.20823   0.090111  
         C         C         0.51829   0.57225   0.12105   -0.133620           
         C         C         0.51967   0.61129   0.29298   -0.140724           
         C         C         0.54590   0.57162   0.11973   -0.049860           
         H         H         0.50690   0.55767   0.05170   0.102469  
         C         C         0.54726   0.61089   0.28970   -0.051153           
         H         H         0.50943   0.62618   0.36520   0.099709  
         C         C         0.56098   0.59101   0.20337   -0.242072           
         H         H         0.55598   0.55624   0.05011   0.107049  
         H         H         0.55843   0.62581   0.35816   0.106284  
         B         B         0.59136   0.59071   0.20272   0.580468  
         O         O         0.60719   0.57153   0.12521   -0.335881           
         O         O         0.60717   0.60979   0.28336   -0.337140           
         C         C         0.63316   0.57905   0.15932   0.162425  
         C         C         0.63311   0.60227   0.25439   0.164110  
         C         C         0.65632   0.56634   0.11076   -0.276249           
         C         C         0.65614   0.61494   0.30890   -0.276545           
         C         C         0.67937   0.57900   0.16548   0.166108  
         H         H         0.65641   0.54834   0.03738   0.165404  
         C         C         0.67930   0.60233   0.25935   0.165411  
         H         H         0.65605   0.63279   0.38358   0.164870  
         O         O         0.70535   0.57128   0.13945   -0.338430           
         O         O         0.70520   0.60990   0.29278   -0.337172           
         B         B         0.72116   0.59056   0.21806   0.581298  
         C         C         0.75160   0.59071   0.22126   -0.239180           
         C         C         0.76626   0.57091   0.14037   -0.051345           
         C         C         0.76580   0.61085   0.30425   -0.050879           
         C         C         0.79387   0.57140   0.14150   -0.142347           
         H         H         0.75584   0.55532   0.07302   0.106184  
         C         C         0.79342   0.61120   0.30638   -0.134628           
         H         H         0.75497   0.62610   0.37052   0.107083  
         C         C         0.80810   0.59154   0.22443   0.090695  
         H         H         0.80487   0.55646   0.07422   0.098207  
         H         H         0.80409   0.62644   0.37459   0.103354  
         C         C         0.40626   0.49450   0.21108   0.091111  
         C         C         0.38624   0.47992   0.29180   -0.141035           
         C         C         0.42620   0.48013   0.12946   -0.135589           
         C         C         0.38607   0.45231   0.29013   -0.051569           
         H         H         0.37119   0.49064   0.35981   0.099573  
         C         C         0.42627   0.45251   0.13007   -0.050112           
         H         H         0.44136   0.49106   0.06278   0.104176  
         C         C         0.40616   0.43797   0.20995   -0.238892           
         H         H         0.37054   0.44160   0.35540   0.106258  
         H         H         0.44180   0.44196   0.06474   0.106758  
         B         B         0.40613   0.40754   0.21151   0.583031  
         O         O         0.38618   0.39181   0.28328   -0.340079           
         O         O         0.42589   0.39155   0.14134   -0.338007           
         C         C         0.39374   0.36582   0.25588   0.168337  
         C         C         0.41781   0.36566   0.17025   0.165723  
         C         C         0.38034   0.34282   0.30323   -0.277630           
         C         C         0.43059   0.34241   0.12329   -0.277229           
         C         C         0.39313   0.31957   0.25629   0.164495  
         H         H         0.36190   0.34302   0.37163   0.166052  
         C         C         0.41719   0.31940   0.17041   0.167053  
         H         H         0.44899   0.34224   0.05447   0.166177  
         O         O         0.38491   0.29367   0.28349   -0.337344           
         O         O         0.42460   0.29340   0.14131   -0.338856           
         B         B         0.40449   0.27767   0.21152   0.580853  
         C         C         0.40387   0.24723   0.20930   -0.239464           
         C         C         0.38354   0.23293   0.28873   -0.048830           
         C         C         0.42357   0.23263   0.12737   -0.051952           
         C         C         0.38312   0.20530   0.28818   -0.136903           
         H         H         0.36822   0.24364   0.35488   0.106317  
         C         C         0.42290   0.20501   0.12438   -0.138850           
         H         H         0.43921   0.24312   0.06187   0.106342  
         C         C         0.40277   0.19065   0.20580   0.090090  
         H         H         0.36778   0.19460   0.35462   0.104174  
         H         H         0.43766   0.19415   0.05476   0.099916  
         C         C         0.30809   0.59297   0.22334   0.092481  
         C         C         0.29377   0.61320   0.14323   -0.137658           
         C         C         0.29342   0.57263   0.30060   -0.140479           
         C         C         0.26615   0.61307   0.14035   -0.049797           
         H         H         0.30476   0.62868   0.07982   0.104318  
         C         C         0.26581   0.57232   0.29593   -0.052210           
         H         H         0.30407   0.55730   0.36730   0.099225  
         C         C         0.25153   0.59253   0.21557   -0.238247           
         H         H         0.25568   0.62881   0.07571   0.107129  
         H         H         0.25507   0.55650   0.35841   0.106023  
         B         B         0.22109   0.59216   0.21054   0.581031  
         O         O         0.20529   0.61229   0.14155   -0.337127           
         O         O         0.20518   0.57167   0.27539   -0.337909           
         C         C         0.17933   0.60416   0.16665   0.165724  
         C         C         0.17926   0.57963   0.24794   0.164477  
         C         C         0.15622   0.61749   0.12185   -0.275281           
         C         C         0.15612   0.56627   0.29251   -0.275432           
         C         C         0.13307   0.60415   0.16656   0.164977  
         H         H         0.15626   0.63637   0.05767   0.165695  
         C         C         0.13303   0.57961   0.24786   0.164581  
         H         H         0.15608   0.54748   0.35783   0.165588  
         O         O         0.10714   0.61227   0.14139   -0.338074           
         O         O         0.10707   0.57168   0.27556   -0.338563           
         B         B         0.09127   0.59214   0.21039   0.582016  
         C         C         0.06087   0.59257   0.21422   -0.239506           
         C         C         0.04656   0.61268   0.13306   -0.050622           
         C         C         0.04634   0.57290   0.29836   -0.050105           
         C         C         0.01894   0.61293   0.13422   -0.142084           
         H         H         0.05727   0.62791   0.06507   0.105757  
         C         C         0.01874   0.57340   0.30172   -0.134976           
         H         H         0.05686   0.55741   0.36496   0.106701  
         C         C         0.00439   0.59327   0.21841   0.092377  
         H         H         0.00823   0.62797   0.06529   0.099334  
         H         H         0.00783   0.55856   0.37114   0.102940  
         C         C         0.40608   0.69073   0.22491   0.090578  
         C         C         0.42559   0.70558   0.30935   -0.142224           
         C         C         0.38624   0.70478   0.13943   -0.136325           
         C         C         0.42535   0.73319   0.30792   -0.051268           
         H         H         0.44067   0.69508   0.37913   0.098718  
         C         C         0.38588   0.73240   0.13864   -0.047534           
         H         H         0.37147   0.69360   0.07020   0.102974  
         C         C         0.40546   0.74722   0.22261   -0.240396           
         H         H         0.44044   0.74414   0.37636   0.106246  
         H         H         0.37055   0.74268   0.06913   0.105938  
         B         B         0.40538   0.77763   0.22131   0.581164  
         O         O         0.42455   0.79358   0.30036   -0.337348           
         O         O         0.38627   0.79339   0.14177   -0.337601           
         C         C         0.41699   0.81949   0.26921   0.164489  
         C         C         0.39381   0.81937   0.17332   0.165865  
         C         C         0.42962   0.84267   0.32172   -0.276995           
         C         C         0.38117   0.84241   0.12074   -0.276182           
         C         C         0.41698   0.86571   0.26903   0.165645  
         H         H         0.44738   0.84278   0.39783   0.165328  
         C         C         0.39379   0.86558   0.17318   0.163137  
         H         H         0.36347   0.84230   0.04422   0.164402  
         O         O         0.42454   0.89172   0.30013   -0.335999           
         O         O         0.38625   0.89148   0.14150   -0.338121           
         B         B         0.40535   0.90743   0.22099   0.580965  
         C         C         0.40477   0.93781   0.22057   -0.240821           
         C         C         0.42434   0.95299   0.30196   -0.047878           
         C         C         0.38419   0.95141   0.13911   -0.049526           
         C         C         0.42337   0.98058   0.30173   -0.134112           
         H         H         0.44019   0.94299   0.36860   0.106861  
         C         C         0.38327   0.97900   0.13856   -0.145813           
         H         H         0.36905   0.94013   0.07315   0.105460  
         C         C         0.40288   0.99421   0.21947   0.092433  
         H         H         0.43821   0.99208   0.36829   0.103188  
         H         H         0.36760   0.98918   0.07208   0.100285  
         C         C         0.83750   0.59200   0.22471   -0.073945           
         C         C         0.85086   0.61625   0.19307   0.194017  
         C         C         0.85057   0.56772   0.25424   0.184731  
         C         C         0.83776   0.64025   0.13531   -0.186759           
         N         N         0.87748   0.62074   0.21817   -0.405972           
         C         C         0.83908   0.54316   0.30768   -0.193376           
         N         N         0.87702   0.56271   0.22556   -0.254686           
         C         C         0.85670   0.65959   0.13212   -0.192596           
         H         H         0.81707   0.64200   0.10125   0.120898  
         C         C         0.88126   0.64732   0.18856   0.196096  
         C         C         0.85847   0.52402   0.30371   -0.191248           
         H         H         0.81861   0.54065   0.34417   0.135171  
         C         C         0.88260   0.53620   0.24880   0.184615  
         H         H         0.85433   0.68003   0.09455   0.124242  
         C         C         0.90528   0.66143   0.21650   -0.076484           
         H         H         0.85636   0.50328   0.33546   0.133776  
         C         C         0.90712   0.52383   0.21643   -0.074380           
         C         C         0.92995   0.64909   0.24691   0.184497  
         C         C         0.93103   0.53786   0.18706   0.191691  
         C         C         0.95434   0.66133   0.29816   -0.189729           
         N         N         0.93549   0.62258   0.22322   -0.255596           
         C         C         0.95544   0.52551   0.13042   -0.189229           
         N         N         0.93491   0.56450   0.21515   -0.405275           
         C         C         0.97383   0.64227   0.29859   -0.188935           
         H         H         0.95658   0.68206   0.33021   0.131432  
         C         C         0.96212   0.61762   0.24782   0.184458  
         C         C         0.97436   0.54486   0.13155   -0.191592           
         H         H         0.95770   0.50499   0.09438   0.123166  
         C         C         0.96144   0.56897   0.18865   0.194544  
         H         H         0.99451   0.64492   0.33073   0.130626  
         C         C         0.97497   0.59323   0.21860   -0.077428           
         H         H         0.99496   0.54304   0.09665   0.124955  
         C         C         0.40252   0.16122   0.20610   -0.075336           
         C         C         0.42703   0.14846   0.23492   0.184110  
         C         C         0.37823   0.14746   0.18005   0.193920  
         C         C         0.45154   0.16019   0.28851   -0.192859           
         N         N         0.43213   0.12191   0.20978   -0.255457           
         C         C         0.35368   0.16012   0.12701   -0.189063           
         N         N         0.37410   0.12091   0.20990   -0.406190           
         C         C         0.47065   0.14077   0.29042   -0.188362           
         H         H         0.45408   0.18085   0.32104   0.133992  
         C         C         0.45861   0.11645   0.23700   0.186003  
         C         C         0.33443   0.14110   0.13329   -0.193018           
         H         H         0.35151   0.18058   0.08924   0.122325  
         C         C         0.34732   0.11682   0.18856   0.192398  
         H         H         0.49126   0.14296   0.32589   0.131177  
         C         C         0.47104   0.09189   0.20723   -0.073438           
         H         H         0.31361   0.14320   0.10317   0.125441  
         C         C         0.33362   0.09273   0.22112   -0.074831           
         C         C         0.45701   0.06798   0.17661   0.195867  
         C         C         0.34630   0.06821   0.25026   0.182742  
         C         C         0.46935   0.04370   0.11761   -0.186905           
         N         N         0.43055   0.06395   0.20770   -0.405975           
         C         C         0.33449   0.04381   0.30440   -0.192779           
         N         N         0.37275   0.06284   0.22342   -0.256573           
         C         C         0.45023   0.02457   0.12210   -0.190314           
         H         H         0.48966   0.04167   0.07726   0.123278  
         C         C         0.42627   0.03732   0.18238   0.194106  
         C         C         0.35373   0.02449   0.30407   -0.189871           
         H         H         0.31390   0.04153   0.33861   0.134471  
         C         C         0.37802   0.03629   0.24919   0.183414  
         H         H         0.45204   0.00393   0.08772   0.120606  
         C         C         0.40237   0.02361   0.21723   -0.074247           
         H         H         0.35143   0.00387   0.33869   0.131650  
         C         C         0.90727   0.49441   0.21405   0.091602  
         C         C         0.88733   0.48001   0.13039   -0.140502           
         C         C         0.92719   0.47992   0.29587   -0.136650           
         C         C         0.88711   0.45239   0.13021   -0.051924           
         H         H         0.87230   0.49088   0.06239   0.098355  
         C         C         0.92707   0.45229   0.29487   -0.049630           
         H         H         0.94242   0.49072   0.36352   0.104048  
         C         C         0.90695   0.43791   0.21279   -0.239309           
         H         H         0.87163   0.44181   0.06293   0.106259  
         H         H         0.94247   0.44164   0.36151   0.106556  
         B         B         0.90646   0.40750   0.21486   0.582210  
         O         O         0.88745   0.39168   0.13346   -0.338684           
         O         O         0.92480   0.39161   0.29994   -0.336633           
         C         C         0.89418   0.36573   0.17020   0.165904  
         C         C         0.91696   0.36568   0.26976   0.164432  
         C         C         0.88114   0.34267   0.11980   -0.277351           
         C         C         0.92898   0.34255   0.32628   -0.276305           
         C         C         0.89307   0.31954   0.17724   0.163086  
         H         H         0.86364   0.34269   0.04154   0.165162  
         C         C         0.91610   0.31947   0.27452   0.165490  
         H         H         0.94646   0.34255   0.40471   0.164801  
         O         O         0.88502   0.29364   0.14865   -0.336584           
         O         O         0.92320   0.29348   0.30824   -0.337422           
         B         B         0.90396   0.27771   0.22834   0.580681  
         C         C         0.90357   0.24729   0.22502   -0.238387           
         C         C         0.88341   0.23345   0.13982   -0.051041           
         C         C         0.92318   0.23229   0.30598   -0.052230           
         C         C         0.88291   0.20584   0.13527   -0.138348           
         H         H         0.86827   0.24454   0.07364   0.107137  
         C         C         0.92255   0.20468   0.30263   -0.140079           
         H         H         0.93873   0.24243   0.37528   0.106497  
         C         C         0.90245   0.19080   0.21687   0.092259  
         H         H         0.86760   0.19548   0.06567   0.104560  
         H         H         0.93729   0.19340   0.37060   0.098588  
         C         C         0.90485   0.69083   0.21289   0.090203  
         C         C         0.88469   0.70520   0.29239   -0.134028           
         C         C         0.92460   0.70540   0.12965   -0.141859           
         C         C         0.88423   0.73281   0.28765   -0.051148           
         H         H         0.86976   0.69435   0.36153   0.104454  
         C         C         0.92442   0.73301   0.12748   -0.050835           
         H         H         0.93981   0.69463   0.06340   0.098987  
         C         C         0.90416   0.74734   0.20597   -0.238074           
         H         H         0.86860   0.74338   0.35195   0.107045  
         H         H         0.93981   0.74369   0.06084   0.106063  
         B         B         0.90406   0.77775   0.20462   0.581454  
         O         O         0.88359   0.79347   0.26862   -0.338972           
         O         O         0.92453   0.79374   0.14085   -0.338857           
         C         C         0.89167   0.81946   0.24445   0.167160  
         C         C         0.91644   0.81965   0.16676   0.165029  
         C         C         0.87820   0.84243   0.28909   -0.278433           
         C         C         0.92988   0.84293   0.12529   -0.275329           
         C         C         0.89171   0.86569   0.24840   0.166959  
         H         H         0.85914   0.84220   0.35055   0.166868  
         C         C         0.91646   0.86591   0.17052   0.165078  
         H         H         0.94888   0.84315   0.06295   0.166346  
         O         O         0.88365   0.89155   0.27559   -0.339683           
         O         O         0.92461   0.89194   0.14830   -0.337697           
         B         B         0.90416   0.90762   0.21310   0.581967  
         C         C         0.90395   0.93805   0.21374   -0.239121           
         C         C         0.88352   0.95213   0.29235   -0.051317           
         C         C         0.92396   0.95284   0.13470   -0.048440           
         C         C         0.88318   0.97974   0.29223   -0.144191           
         H         H         0.86802   0.94125   0.35685   0.105286  
         C         C         0.92338   0.98046   0.13250   -0.134211           
         H         H         0.93976   0.94249   0.07066   0.106813  
         C         C         0.90302   0.99458   0.21166   0.092915  
         H         H         0.86771   0.99028   0.35760   0.099822  
         H         H         0.93843   0.99153   0.06585   0.103480  
         C         C         0.90204   0.16139   0.21307   -0.072003           
         C         C         0.87785   0.14769   0.24138   0.191982  
         C         C         0.92645   0.14869   0.18246   0.184766  
         C         C         0.85354   0.16040   0.29666   -0.186452           
         N         N         0.87366   0.12108   0.21396   -0.404361           
         C         C         0.95080   0.16063   0.12949   -0.191676           
         N         N         0.93180   0.12220   0.20792   -0.254734           
         C         C         0.83435   0.14127   0.29525   -0.190706           
         H         H         0.85150   0.18096   0.33278   0.121534  
         C         C         0.84706   0.11692   0.24011   0.190506  
         C         C         0.97013   0.14142   0.12974   -0.189735           
         H         H         0.95308   0.18129   0.09635   0.134165  
         C         C         0.95835   0.11704   0.18361   0.186135  
         H         H         0.81371   0.14338   0.32877   0.121884  
         C         C         0.83341   0.09263   0.21245   -0.075450           
         H         H         0.99072   0.14381   0.09579   0.130831  
         C         C         0.97109   0.09275   0.21751   -0.073677           
         C         C         0.84619   0.06820   0.18236   0.183070  
         C         C         0.95732   0.06870   0.24798   0.195539  
         C         C         0.83435   0.04371   0.12980   -0.192494           
         N         N         0.87281   0.06308   0.20607   -0.257245           
         C         C         0.96983   0.04454   0.30821   -0.187449           
         N         N         0.93084   0.06444   0.21648   -0.406074           
         C         C         0.85377   0.02460   0.12731   -0.189748           
         H         H         0.81362   0.04118   0.09841   0.135069  
         C         C         0.87820   0.03658   0.17984   0.183944  
         C         C         0.95080   0.02531   0.30474   -0.189086           
         H         H         0.99022   0.04261   0.34840   0.121354  
         C         C         0.92668   0.03785   0.24370   0.194956  
         H         H         0.85148   0.00399   0.09253   0.131913  
         C         C         0.90270   0.02399   0.21108   -0.077122           
         H         H         0.95278   0.00475   0.34049   0.120263  
         C         C         0.50039   0.09126   0.20966   0.091081  
         C         C         0.51402   0.07079   0.29202   -0.138005           
         C         C         0.51561   0.11090   0.12991   -0.142921           
         C         C         0.54162   0.07002   0.29519   -0.048914           
         H         H         0.50251   0.05582   0.35659   0.103723  
         C         C         0.54320   0.11021   0.13376   -0.051051           
         H         H         0.50540   0.12633   0.06134   0.099871  
         C         C         0.55682   0.08979   0.21674   -0.238616           
         H         H         0.55162   0.05420   0.36188   0.107073  
         H         H         0.55446   0.12536   0.06850   0.106186  
         B         B         0.58722   0.08941   0.22019   0.579060  
         O         O         0.60305   0.07033   0.29988   -0.336574           
         O         O         0.60309   0.10856   0.14174   -0.337515           
         C         C         0.62903   0.07803   0.26935   0.164780  
         C         C         0.62899   0.10127   0.17463   0.167063  
         C         C         0.65221   0.06553   0.32146   -0.277444           
         C         C         0.65202   0.11425   0.12423   -0.276260           
         C         C         0.67527   0.07851   0.27089   0.164738  
         H         H         0.65234   0.04757   0.39513   0.165169  
         C         C         0.67518   0.10188   0.17747   0.165615  
         H         H         0.65190   0.13204   0.04904   0.165280  
         O         O         0.70127   0.07121   0.30184   -0.339451           
         O         O         0.70107   0.10987   0.14913   -0.338205           
         B         B         0.71705   0.09064   0.22543   0.582813  
         C         C         0.74747   0.09102   0.22377   -0.239998           
         C         C         0.76255   0.07162   0.30632   -0.052329           
         C         C         0.76126   0.11102   0.13785   -0.051267           
         C         C         0.79015   0.07237   0.30339   -0.140640           
         H         H         0.75252   0.05612   0.37602   0.106583  
         C         C         0.78886   0.11153   0.13310   -0.133646           
         H         H         0.75008   0.12598   0.07068   0.106201  
         C         C         0.80399   0.09223   0.21617   0.090954  
         H         H         0.80150   0.05783   0.37253   0.098342  
         H         H         0.79908   0.12667   0.06187   0.104527  
         C         C         0.30418   0.09280   0.22450   0.090764  
         C         C         0.28922   0.07318   0.14161   -0.141302           
         C         C         0.29015   0.11250   0.31052   -0.136178           
         C         C         0.26161   0.07305   0.14652   -0.051198           
         H         H         0.29959   0.05834   0.06969   0.100617  
         C         C         0.26253   0.11259   0.31369   -0.049742           
         H         H         0.30133   0.12749   0.37763   0.102529  
         C         C         0.24762   0.09278   0.23253   -0.239180           
         H         H         0.25066   0.05779   0.07961   0.105329  
         H         H         0.25231   0.12792   0.38296   0.106287  
         B         B         0.21718   0.09267   0.23640   0.583152  
         O         O         0.20113   0.07271   0.16631   -0.338543           
         O         O         0.20146   0.11242   0.30918   -0.338544           
         C         C         0.17526   0.08042   0.19605   0.165227  
         C         C         0.17544   0.10447   0.28276   0.165216  
         C         C         0.15205   0.06734   0.14875   -0.276045           
         C         C         0.15241   0.11752   0.33093   -0.277021           
         C         C         0.12904   0.08043   0.19625   0.166449  
         H         H         0.15191   0.04893   0.07939   0.165699  
         C         C         0.12919   0.10448   0.28289   0.164581  
         H         H         0.15257   0.13596   0.40003   0.166415  
         O         O         0.10307   0.07271   0.16634   -0.337619           
         O         O         0.10325   0.11244   0.30904   -0.338081           
         B         B         0.08732   0.09267   0.23602   0.581078  
         C         C         0.05692   0.09283   0.23156   -0.238500           
         C         C         0.04268   0.07251   0.15077   -0.049703           
         C         C         0.04233   0.11317   0.30768   -0.050634           
         C         C         0.01509   0.07257   0.14550   -0.136242           
         H         H         0.05348   0.05681   0.08862   0.107107  
         C         C         0.01473   0.11310   0.30354   -0.142765           
         H         H         0.05281   0.12884   0.37374   0.106438  
         C         C         0.00047   0.09284   0.22203   0.091208  
         H         H         0.00439   0.05714   0.07913   0.103776  
         H         H         0.00372   0.12843   0.36744   0.098844  
         H         H         0.42207   0.60797   0.24017   0.276172  
         H         H         0.39069   0.57713   0.24509   0.278389  
         H         H         0.92156   0.60834   0.19810   0.276372  
         H         H         0.89086   0.57690   0.19815   0.276852  
         H         H         0.41797   0.10791   0.18432   0.277672  
         H         H         0.38680   0.07680   0.19583   0.276192  
         H         H         0.91788   0.10809   0.23506   0.277142  
         H         H         0.88678   0.07720   0.23222   0.276842  
         C         C         0.47171   0.64053   0.62985   -0.188351           
         C         C         0.45262   0.65996   0.63445   -0.190495           
         C         C         0.45994   0.61615   0.68409   0.184670  
         C         C         0.42839   0.64818   0.69068   0.185008  
         N         N         0.43361   0.62159   0.71443   -0.255848           
         C         C         0.45906   0.56746   0.74233   0.195470  
         C         C         0.47201   0.54316   0.79680   -0.189507           
         C         C         0.45302   0.52386   0.79596   -0.188763           
         C         C         0.42854   0.53650   0.74170   0.192009  
         N         N         0.43243   0.56320   0.71656   -0.405032           
         C         C         0.37986   0.53540   0.68626   0.184273  
         C         C         0.35524   0.52369   0.63478   -0.190574           
         C         C         0.33605   0.54305   0.63837   -0.190157           
         C         C         0.34821   0.56734   0.69186   0.184351  
         N         N         0.37478   0.56189   0.71471   -0.257295           
         C         C         0.34950   0.61596   0.75393   0.194850  
         C         C         0.33677   0.64011   0.81199   -0.190260           
         C         C         0.35580   0.65937   0.81263   -0.188573           
         C         C         0.38006   0.64692   0.75442   0.193927  
         N         N         0.37601   0.62031   0.72627   -0.404850           
         C         C         0.33574   0.59185   0.72336   -0.076281           
         C         C         0.40442   0.52267   0.71252   -0.075623           
         C         C         0.47266   0.59163   0.71170   -0.074107           
         C         C         0.40402   0.66083   0.72326   -0.075094           
         H         H         0.31528   0.54083   0.60714   0.131513  
         H         H         0.35272   0.50312   0.59966   0.131938  
         H         H         0.45528   0.50321   0.82928   0.121853  
         H         H         0.49265   0.54116   0.83133   0.124101  
         H         H         0.49214   0.64277   0.59207   0.132103  
         H         H         0.45498   0.68064   0.60210   0.130664  
         H         H         0.35367   0.67987   0.84949   0.121851  
         H         H         0.31622   0.64198   0.84765   0.121928  
         C         C         0.50204   0.59145   0.70770   0.089584  
         C         C         0.51583   0.57128   0.62433   -0.135876           
         C         C         0.51714   0.61124   0.78775   -0.142865           
         C         C         0.54343   0.57077   0.62197   -0.048065           
         H         H         0.50441   0.55632   0.55837   0.102786  
         C         C         0.54473   0.61095   0.78347   -0.049503           
         H         H         0.50690   0.62649   0.85708   0.100839  
         C         C         0.55848   0.59069   0.70085   -0.241330           
         H         H         0.55351   0.55509   0.55486   0.106737  
         H         H         0.55590   0.62628   0.84839   0.105891  
         B         B         0.58889   0.59066   0.69952   0.581206  
         O         O         0.60491   0.57059   0.63309   -0.337471           
         O         O         0.60453   0.61102   0.76850   -0.338340           
         C         C         0.63082   0.57875   0.66321   0.166212  
         C         C         0.63054   0.60315   0.74596   0.165052  
         C         C         0.65414   0.56570   0.62067   -0.275067           
         C         C         0.65346   0.61645   0.79664   -0.275784           
         C         C         0.67709   0.57907   0.67041   0.163600  
         H         H         0.65445   0.54706   0.55385   0.165585  
         C         C         0.67674   0.60334   0.75450   0.165506  
         H         H         0.65317   0.63509   0.86352   0.165893  
         O         O         0.70319   0.57134   0.64808   -0.339501           
         O         O         0.70255   0.61142   0.78588   -0.338489           
         B         B         0.71875   0.59153   0.71964   0.583528  
         C         C         0.74918   0.59171   0.72426   -0.239904           
         C         C         0.76364   0.57165   0.64450   -0.052907           
         C         C         0.76361   0.61176   0.80655   -0.048650           
         C         C         0.79125   0.57181   0.64507   -0.140949           
         H         H         0.75301   0.55617   0.57760   0.106449  
         C         C         0.79124   0.61164   0.80952   -0.135338           
         H         H         0.75303   0.62734   0.87139   0.105924  
         C         C         0.80573   0.59179   0.72782   0.091148  
         H         H         0.80198   0.55678   0.57686   0.099653  
         H         H         0.80206   0.62681   0.87748   0.103872  
         C         C         0.40468   0.49326   0.71079   0.090727  
         C         C         0.38534   0.47839   0.79563   -0.140889           
         C         C         0.42443   0.47922   0.62547   -0.134001           
         C         C         0.38575   0.45077   0.79535   -0.050326           
         H         H         0.37036   0.48887   0.86553   0.098970  
         C         C         0.42496   0.45160   0.62624   -0.048893           
         H         H         0.43902   0.49037   0.55539   0.103361  
         C         C         0.40563   0.43675   0.71107   -0.242271           
         H         H         0.37081   0.43985   0.86432   0.105528  
         H         H         0.44028   0.44132   0.55745   0.106115  
         B         B         0.40601   0.40631   0.71157   0.583297  
         O         O         0.38777   0.39029   0.79754   -0.338189           
         O         O         0.42444   0.39063   0.62606   -0.336923           
         C         C         0.39505   0.36441   0.76276   0.164435  
         C         C         0.41731   0.36460   0.66011   0.164289  
         C         C         0.38284   0.34119   0.81752   -0.277659           
         C         C         0.42951   0.34159   0.60366   -0.275257           
         C         C         0.39497   0.31819   0.76053   0.166423  
         H         H         0.36575   0.34105   0.89819   0.164583  
         C         C         0.41736   0.31836   0.65898   0.162695  
         H         H         0.44650   0.34175   0.52217   0.163048  
         O         O         0.38753   0.29220   0.79197   -0.336877           
         O         O         0.42456   0.29243   0.62467   -0.337975           
         B         B         0.40591   0.27647   0.70709   0.582290  
         C         C         0.40571   0.24606   0.70478   -0.240568           
         C         C         0.38604   0.23147   0.78841   -0.048863           
         C         C         0.42534   0.23184   0.61970   -0.051693           
         C         C         0.38613   0.20385   0.78840   -0.134616           
         H         H         0.37091   0.24197   0.85754   0.107122  
         C         C         0.42532   0.20423   0.61893   -0.142335           
         H         H         0.44047   0.24260   0.55134   0.105607  
         C         C         0.40582   0.18961   0.70387   0.089682  
         H         H         0.37136   0.19287   0.85811   0.104337  
         H         H         0.44018   0.19352   0.54952   0.098604  
         C         C         0.30633   0.59205   0.72273   0.092620  
         C         C         0.29220   0.61182   0.63724   -0.135211           
         C         C         0.29161   0.57247   0.80636   -0.140985           
         C         C         0.26459   0.61198   0.63545   -0.049285           
         H         H         0.30328   0.62669   0.56908   0.103647  
         C         C         0.26401   0.57247   0.80333   -0.052082           
         H         H         0.30221   0.55752   0.87663   0.098486  
         C         C         0.24990   0.59223   0.71779   -0.241331           
         H         H         0.25419   0.62728   0.56643   0.106524  
         H         H         0.25316   0.55724   0.87047   0.106070  
         B         B         0.21951   0.59208   0.71414   0.581508  
         O         O         0.20383   0.61102   0.63252   -0.336523           
         O         O         0.20353   0.57292   0.79199   -0.337898           
         C         C         0.17782   0.60332   0.66063   0.165271  
         C         C         0.17762   0.58032   0.75758   0.163602  
         C         C         0.15484   0.61577   0.60504   -0.275813           
         C         C         0.15438   0.56776   0.80866   -0.277341           
         C         C         0.13161   0.60329   0.65669   0.163218  
         H         H         0.15503   0.63341   0.52847   0.164520  
         C         C         0.13138   0.58025   0.75333   0.166511  
         H         H         0.15422   0.55016   0.88565   0.164963  
         O         O         0.10573   0.61102   0.62488   -0.336823           
         O         O         0.10534   0.57292   0.78421   -0.338011           
         B         B         0.08969   0.59227   0.70594   0.580993  
         C         C         0.05928   0.59302   0.71053   -0.240951           
         C         C         0.04495   0.61340   0.63198   -0.049328           
         C         C         0.04473   0.57330   0.79417   -0.049363           
         C         C         0.01734   0.61381   0.63516   -0.143279           
         H         H         0.05562   0.62869   0.56421   0.105848  
         C         C         0.01714   0.57384   0.79841   -0.135061           
         H         H         0.05527   0.55760   0.85881   0.106552  
         C         C         0.00277   0.59400   0.71797   0.091846  
         H         H         0.00660   0.62912   0.56874   0.099067  
         H         H         0.00623   0.55881   0.86645   0.103146  
         C         C         0.40389   0.69024   0.72292   0.092258  
         C         C         0.42400   0.70496   0.80283   -0.141799           
         C         C         0.38363   0.70450   0.64243   -0.137280           
         C         C         0.42400   0.73258   0.80097   -0.049591           
         H         H         0.43931   0.69435   0.87015   0.100230  
         C         C         0.38352   0.73213   0.64145   -0.048960           
         H         H         0.36824   0.69348   0.57771   0.103310  
         C         C         0.40376   0.74681   0.72029   -0.240391           
         H         H         0.43960   0.74339   0.86590   0.105951  
         H         H         0.36781   0.74255   0.57610   0.106763  
         B         B         0.40392   0.77725   0.72018   0.582478  
         O         O         0.42336   0.79280   0.79960   -0.338572           
         O         O         0.38497   0.79341   0.64203   -0.337421           
         C         C         0.41631   0.81889   0.76878   0.164584  
         C         C         0.39295   0.81925   0.67463   0.165590  
         C         C         0.42949   0.84183   0.82042   -0.275524           
         C         C         0.38050   0.84257   0.62511   -0.277285           
         C         C         0.41714   0.86517   0.76994   0.165672  
         H         H         0.44746   0.84154   0.89458   0.164994  
         C         C         0.39358   0.86549   0.67771   0.164879  
         H         H         0.36252   0.84287   0.55114   0.165338  
         O         O         0.42523   0.89106   0.80051   -0.338155           
         O         O         0.38623   0.89154   0.64915   -0.338826           
         B         B         0.40599   0.90714   0.72487   0.583968  
         C         C         0.40638   0.93755   0.72323   -0.240633           
         C         C         0.42679   0.95205   0.80147   -0.049022           
         C         C         0.38633   0.95188   0.64163   -0.052031           
         C         C         0.42698   0.97967   0.79940   -0.141495           
         H         H         0.44242   0.94152   0.86678   0.106845  
         C         C         0.38665   0.97949   0.63861   -0.138048           
         H         H         0.37067   0.94117   0.57681   0.105787  
         C         C         0.40690   0.99405   0.71832   0.091709  
         H         H         0.44256   0.99060   0.86290   0.108427  
         H         H         0.37151   0.99021   0.57048   0.099156  
         C         C         0.83514   0.59214   0.72663   -0.076955           
         C         C         0.84853   0.61646   0.69597   0.194272  
         C         C         0.84833   0.56782   0.75345   0.185057  
         C         C         0.83547   0.64059   0.63953   -0.193177           
         N         N         0.87519   0.62087   0.71981   -0.406234           
         C         C         0.83711   0.54302   0.80496   -0.193317           
         N         N         0.87489   0.56317   0.72528   -0.256583           
         C         C         0.85448   0.65987   0.63548   -0.190183           
         H         H         0.81474   0.64244   0.60675   0.124732  
         C         C         0.87906   0.64746   0.69042   0.194262  
         C         C         0.85678   0.52416   0.80146   -0.191173           
         H         H         0.81661   0.54010   0.83972   0.135099  
         C         C         0.88081   0.53670   0.74797   0.184148  
         H         H         0.85216   0.68035   0.59798   0.124274  
         C         C         0.90312   0.66152   0.71708   -0.074468           
         H         H         0.85493   0.50337   0.83267   0.132902  
         C         C         0.90548   0.52460   0.71597   -0.074465           
         C         C         0.92788   0.64934   0.74695   0.185541  
         C         C         0.92929   0.53879   0.68545   0.192831  
         C         C         0.95216   0.66187   0.79764   -0.189479           
         N         N         0.93368   0.62289   0.72402   -0.255861           
         C         C         0.95358   0.52649   0.62629   -0.186018           
         N         N         0.93325   0.56535   0.71498   -0.405040           
         C         C         0.97183   0.64300   0.79931   -0.188925           
         H         H         0.95413   0.68267   0.82804   0.130946  
         C         C         0.96037   0.61824   0.74885   0.184077  
         C         C         0.97256   0.54577   0.62789   -0.188309           
         H         H         0.95572   0.50605   0.58823   0.120356  
         C         C         0.95978   0.56979   0.68756   0.194137  
         H         H         0.99246   0.64589   0.83222   0.131709  
         C         C         0.97336   0.59397   0.71887   -0.074485           
         H         H         0.99310   0.54400   0.59148   0.121055  
         C         C         0.40611   0.16021   0.70515   -0.075051           
         C         C         0.43076   0.14782   0.73467   0.185787  
         C         C         0.38196   0.14636   0.67805   0.194826  
         C         C         0.45509   0.16009   0.78673   -0.188385           
         N         N         0.43639   0.12135   0.70999   -0.257147           
         C         C         0.35752   0.15892   0.62212   -0.188403           
         N         N         0.37783   0.11989   0.70925   -0.405692           
         C         C         0.47465   0.14109   0.78684   -0.191124           
         H         H         0.45720   0.18078   0.81994   0.131122  
         C         C         0.46301   0.11644   0.73544   0.183547  
         C         C         0.33831   0.13987   0.62715   -0.188038           
         H         H         0.35543   0.17936   0.58374   0.121148  
         C         C         0.35111   0.11577   0.68584   0.194106  
         H         H         0.49531   0.14377   0.81976   0.131625  
         C         C         0.47580   0.09195   0.70803   -0.077944           
         H         H         0.31761   0.14187   0.59393   0.123544  
         C         C         0.33750   0.09178   0.72106   -0.075263           
         C         C         0.46197   0.06775   0.68104   0.192275  
         C         C         0.35051   0.06756   0.75305   0.185943  
         C         C         0.47448   0.04324   0.62707   -0.191462           
         N         N         0.43535   0.06378   0.70809   -0.405090           
         C         C         0.33917   0.04321   0.81094   -0.188547           
         N         N         0.37694   0.06249   0.72343   -0.256893           
         C         C         0.45520   0.02423   0.62759   -0.188654           
         H         H         0.49508   0.04097   0.59318   0.122331  
         C         C         0.43102   0.03713   0.68333   0.193836  
         C         C         0.35861   0.02412   0.80862   -0.188480           
         H         H         0.31881   0.04079   0.84963   0.131136  
         C         C         0.38262   0.03608   0.75004   0.186149  
         H         H         0.45715   0.00358   0.59333   0.123567  
         C         C         0.40699   0.02347   0.71671   -0.076193           
         H         H         0.35667   0.00354   0.84407   0.128998  
         C         C         0.90636   0.49519   0.71578   0.093315  
         C         C         0.88692   0.47995   0.63351   -0.143119           
         C         C         0.92679   0.48154   0.79860   -0.137045           
         C         C         0.88775   0.45236   0.63513   -0.050794           
         H         H         0.87144   0.49014   0.56519   0.099195  
         C         C         0.92774   0.45393   0.79922   -0.048753           
         H         H         0.94158   0.49303   0.86568   0.103439  
         C         C         0.90818   0.43872   0.71794   -0.239958           
         H         H         0.87264   0.44110   0.56880   0.105386  
         H         H         0.94353   0.44398   0.86650   0.106712  
         B         B         0.90831   0.40829   0.72007   0.583556  
         O         O         0.88874   0.39274   0.64208   -0.338283           
         O         O         0.92718   0.39216   0.79930   -0.338295           
         C         C         0.89549   0.36670   0.67562   0.165342  
         C         C         0.91888   0.36629   0.76953   0.165219  
         C         C         0.88194   0.34385   0.62659   -0.274664           
         C         C         0.93101   0.34288   0.82099   -0.276671           
         C         C         0.89395   0.32048   0.67903   0.165501  
         H         H         0.86401   0.34422   0.55205   0.164494  
         C         C         0.91755   0.32000   0.77093   0.164286  
         H         H         0.94906   0.34251   0.89435   0.165235  
         O         O         0.88550   0.29469   0.64970   -0.338581           
         O         O         0.92456   0.29386   0.80061   -0.338500           
         B         B         0.90467   0.27841   0.72463   0.583069  
         C         C         0.90459   0.24797   0.72273   -0.239989           
         C         C         0.88488   0.23323   0.63935   -0.048522           
         C         C         0.92492   0.23382   0.80310   -0.051801           
         C         C         0.88561   0.20561   0.63518   -0.133684           
         H         H         0.86916   0.24360   0.57369   0.106481  
         C         C         0.92549   0.20622   0.80029   -0.142922           
         H         H         0.94015   0.24467   0.87103   0.106081  
         C         C         0.90590   0.19144   0.71597   0.091147  
         H         H         0.87075   0.19458   0.56557   0.104045  
         H         H         0.94088   0.19565   0.86690   0.098926  
         C         C         0.90285   0.69095   0.71367   0.090141  
         C         C         0.88336   0.70548   0.79813   -0.134792           
         C         C         0.92223   0.70530   0.62598   -0.139926           
         C         C         0.88337   0.73310   0.79561   -0.049047           
         H         H         0.86860   0.69474   0.86916   0.102722  
         C         C         0.92238   0.73292   0.62455   -0.050732           
         H         H         0.93683   0.69437   0.55557   0.098313  
         C         C         0.90298   0.74744   0.70987   -0.243029           
         H         H         0.86831   0.74383   0.86401   0.106435  
         H         H         0.93736   0.74342   0.55344   0.106222  
         B         B         0.90333   0.77786   0.70944   0.582583  
         O         O         0.88501   0.79399   0.79205   -0.337867           
         O         O         0.92204   0.79342   0.62479   -0.337557           
         C         C         0.89267   0.81986   0.75719   0.163716  
         C         C         0.91517   0.81949   0.65663   0.165861  
         C         C         0.88063   0.84321   0.80936   -0.277259           
         C         C         0.92796   0.84236   0.60125   -0.275888           
         C         C         0.89332   0.86609   0.75312   0.165579  
         H         H         0.86323   0.84356   0.88740   0.164168  
         C         C         0.91613   0.86571   0.65522   0.164143  
         H         H         0.94536   0.84204   0.52324   0.163852  
         O         O         0.88635   0.89216   0.78418   -0.337953           
         O         O         0.92428   0.89156   0.62445   -0.336884           
         B         B         0.90568   0.90771   0.70482   0.581519  
         C         C         0.90627   0.93812   0.70750   -0.242539           
         C         C         0.88656   0.95250   0.79088   -0.050610           
         C         C         0.92647   0.95256   0.62777   -0.048549           
         C         C         0.88695   0.98011   0.79362   -0.140903           
         H         H         0.87109   0.94183   0.85694   0.106241  
         C         C         0.92679   0.98018   0.63016   -0.138195           
         H         H         0.94178   0.94197   0.56083   0.107065  
         C         C         0.90698   0.99459   0.71247   0.093086  
         H         H         0.87207   0.99088   0.86278   0.099458  
         H         H         0.94218   0.99108   0.56555   0.104539  
         C         C         0.90639   0.16203   0.71419   -0.077229           
         C         C         0.88241   0.14805   0.74364   0.194961  
         C         C         0.93097   0.14946   0.68611   0.184508  
         C         C         0.85816   0.16039   0.80302   -0.190433           
         N         N         0.87845   0.12145   0.71543   -0.406576           
         C         C         0.95559   0.16133   0.63732   -0.189725           
         N         N         0.93612   0.12289   0.71169   -0.258996           
         C         C         0.83924   0.14103   0.80444   -0.184504           
         H         H         0.85604   0.18089   0.83976   0.120840  
         C         C         0.85196   0.11701   0.74448   0.194613  
         C         C         0.97484   0.14202   0.64058   -0.190734           
         H         H         0.95811   0.18199   0.60442   0.132006  
         C         C         0.96273   0.11754   0.69050   0.184928  
         H         H         0.81884   0.14273   0.84373   0.120825  
         C         C         0.83831   0.09291   0.71255   -0.072836           
         H         H         0.99564   0.14438   0.61152   0.130994  
         C         C         0.97521   0.09297   0.72062   -0.078007           
         C         C         0.85099   0.06855   0.68027   0.186264  
         C         C         0.96148   0.06880   0.74956   0.193274  
         C         C         0.83909   0.04425   0.62498   -0.189180           
         N         N         0.87744   0.06318   0.70744   -0.255165           
         C         C         0.97424   0.04453   0.80652   -0.188176           
         N         N         0.93496   0.06450   0.72056   -0.405128           
         C         C         0.85829   0.02491   0.62570   -0.188091           
         H         H         0.81849   0.04198   0.58979   0.131266  
         C         C         0.88264   0.03667   0.68124   0.183928  
         C         C         0.95522   0.02526   0.80465   -0.190288           
         H         H         0.99479   0.04257   0.84316   0.121660  
         C         C         0.93097   0.03783   0.74640   0.192407  
         H         H         0.85594   0.00430   0.59141   0.130107  
         C         C         0.90703   0.02398   0.71342   -0.073676           
         H         H         0.95733   0.00467   0.83987   0.122892  
         C         C         0.50523   0.09195   0.70805   0.091551  
         C         C         0.51968   0.07234   0.79314   -0.134314           
         C         C         0.51982   0.11164   0.62399   -0.140480           
         C         C         0.54730   0.07237   0.79369   -0.050002           
         H         H         0.50886   0.05743   0.86273   0.103832  
         C         C         0.54744   0.11193   0.62681   -0.052325           
         H         H         0.50910   0.12652   0.55371   0.099994  
         C         C         0.56185   0.09226   0.71156   -0.239787           
         H         H         0.55783   0.05712   0.86231   0.106338  
         H         H         0.55808   0.12732   0.55963   0.105713  
         B         B         0.59231   0.09245   0.71483   0.582798  
         O         O         0.60808   0.07296   0.79112   -0.337600           
         O         O         0.60827   0.11218   0.64188   -0.337807           
         C         C         0.63407   0.08069   0.76225   0.164675  
         C         C         0.63417   0.10445   0.67252   0.162473  
         C         C         0.65712   0.06774   0.81191   -0.275889           
         C         C         0.65736   0.11751   0.62542   -0.276269           
         C         C         0.68032   0.08065   0.76355   0.165956  
         H         H         0.65698   0.04953   0.88321   0.165236  
         C         C         0.68040   0.10459   0.67572   0.164588  
         H         H         0.65749   0.13581   0.55503   0.166291  
         O         O         0.70626   0.07281   0.79224   -0.337526           
         O         O         0.70637   0.11245   0.64852   -0.337083           
         B         B         0.72215   0.09260   0.72010   0.580746  
         C         C         0.75254   0.09260   0.71788   -0.239847           
         C         C         0.76710   0.07247   0.79688   -0.050842           
         C         C         0.76676   0.11282   0.63665   -0.048572           
         C         C         0.79469   0.07263   0.79515   -0.142712           
         H         H         0.75661   0.05690   0.86330   0.106573  
         C         C         0.79436   0.11288   0.63411   -0.136542           
         H         H         0.75594   0.12833   0.57208   0.106677  
         C         C         0.80894   0.09280   0.71367   0.090795  
         H         H         0.80571   0.05745   0.86081   0.098295  
         H         H         0.80510   0.12818   0.56732   0.104031  
         C         C         0.30810   0.09162   0.72343   0.093402  
         C         C         0.29348   0.07131   0.64489   -0.142588           
         C         C         0.29381   0.11176   0.80366   -0.139481           
         C         C         0.26588   0.07107   0.64722   -0.052216           
         H         H         0.30414   0.05603   0.57853   0.098740  
         C         C         0.26619   0.11150   0.80630   -0.046177           
         H         H         0.30484   0.12725   0.86739   0.103889  
         C         C         0.25160   0.09109   0.72856   -0.239948           
         H         H         0.25507   0.05542   0.58299   0.106393  
         H         H         0.25574   0.12706   0.87224   0.106717  
         B         B         0.22117   0.09035   0.73202   0.580326  
         O         O         0.20535   0.07142   0.64963   -0.337988           
         O         O         0.20526   0.10857   0.81677   -0.336946           
         C         C         0.17937   0.07842   0.68302   0.164775  
         C         C         0.17934   0.10103   0.78338   0.167514  
         C         C         0.15628   0.06585   0.62816   -0.277689           
         C         C         0.15622   0.11340   0.83610   -0.276611           
         C         C         0.13314   0.07806   0.68207   0.163429  
         H         H         0.15637   0.04849   0.54916   0.164633  
         C         C         0.13316   0.10095   0.78003   0.164720  
         H         H         0.15611   0.13087   0.91427   0.164240  
         O         O         0.10715   0.07052   0.64906   -0.337066           
         O         O         0.10724   0.10851   0.80921   -0.337299           
         B         B         0.09137   0.08967   0.72719   0.582157  
         C         C         0.06102   0.09045   0.72396   -0.242175           
         C         C         0.04594   0.07134   0.63799   -0.049612           
         C         C         0.04733   0.11066   0.80755   -0.050567           
         C         C         0.01836   0.07245   0.63554   -0.133093           
         H         H         0.05598   0.05573   0.57017   0.106438  
         C         C         0.01974   0.11156   0.80680   -0.141761           
         H         H         0.05854   0.12545   0.87688   0.105996  
         C         C         0.00462   0.09247   0.72070   0.091051  
         H         H         0.00697   0.05801   0.56511   0.102645  
         H         H         0.00953   0.12673   0.87697   0.100342  
         H         H         0.41948   0.60769   0.74136   0.276725  
         H         H         0.38910   0.57575   0.73985   0.277022  
         H         H         0.92004   0.60835   0.69901   0.276877  
         H         H         0.88845   0.57771   0.69937   0.277054  
         H         H         0.42262   0.10690   0.68587   0.277363  
         H         H         0.39053   0.07671   0.69279   0.277020  
         H         H         0.92188   0.10893   0.73536   0.277302  
         H         H         0.89158   0.07704   0.73593   0.277116 

