
##########################################################################
#               Crystallographic Information Format file
#               Produced by PyCifRW module
#
#  This is a CIF file.  CIF has been adopted by the International
#  Union of Crystallography as the standard for data archiving and
#  transmission.
#
#  For information on this file format, follow the CIF links at
#  http://www.iucr.org
##########################################################################

data_image0

_cell_length_a                          50.3585
_cell_length_b                          50.366
_cell_length_c                          8.13537
_cell_angle_alpha                       89.3615
_cell_angle_beta                        89.5823
_cell_angle_gamma                       90.4433
_symmetry_space_group_name_H-M          'P 1'
_space_group_name_Hall                  'P 1'
loop_
  _atom_site_type_symbol
  _atom_site_label
  _atom_site_fract_x
  _atom_site_fract_y
  _atom_site_fract_z
  _atom_site_charge
         C         C         0.47518   0.63973   0.16753   -0.187300           
         C         C         0.45617   0.65900   0.16697   -0.183181           
         C         C         0.46245   0.61526   0.22025   0.184634  
         C         C         0.43157   0.64660   0.21994   0.184484  
         N         N         0.43570   0.61977   0.24540   -0.371682           
         C         C         0.46190   0.56641   0.27664   0.185795  
         C         C         0.47414   0.54168   0.32398   -0.184561           
         C         C         0.45462   0.52260   0.32591   -0.186019           
         C         C         0.43021   0.53539   0.27911   0.186873  
         N         N         0.43497   0.56225   0.25677   -0.373868           
         C         C         0.38162   0.53595   0.21998   0.185026  
         C         C         0.35727   0.52374   0.16509   -0.181592           
         C         C         0.33829   0.54302   0.16341   -0.183527           
         C         C         0.35077   0.56725   0.21744   0.185425  
         N         N         0.37742   0.56268   0.24442   -0.373026           
         C         C         0.35116   0.61571   0.27615   0.187512  
         C         C         0.33881   0.64026   0.32343   -0.183307           
         C         C         0.35825   0.65938   0.32319   -0.182742           
         C         C         0.38278   0.64675   0.27648   0.184816  
         N         N         0.37814   0.61994   0.25549   -0.374623           
         Zn        Zn        0.40668   0.59107   0.25324   0.688010  
         C         C         0.33771   0.59154   0.24557   -0.068874           
         C         C         0.40565   0.52250   0.25074   -0.071399           
         C         C         0.47538   0.59075   0.24687   -0.070594           
         C         C         0.40731   0.65988   0.24716   -0.068966           
         H         H         0.31771   0.54091   0.12825   0.124999  
         H         H         0.35490   0.50315   0.13132   0.126228  
         H         H         0.45674   0.50175   0.35573   0.129380  
         H         H         0.49493   0.53909   0.35205   0.126885  
         H         H         0.49593   0.64200   0.13482   0.128398  
         H         H         0.45868   0.67970   0.13282   0.126111  
         H         H         0.35604   0.68017   0.35149   0.124763  
         H         H         0.31799   0.64274   0.35253   0.126136  
         C         C         0.50485   0.59066   0.24066   0.089617  
         C         C         0.51880   0.57162   0.14916   -0.138790           
         C         C         0.51984   0.60985   0.32493   -0.134023           
         C         C         0.54644   0.57181   0.14153   -0.049090           
         H         H         0.50757   0.55704   0.08030   0.100996  
         C         C         0.54743   0.61024   0.31580   -0.052041           
         H         H         0.50948   0.62409   0.40107   0.101090  
         C         C         0.56138   0.59125   0.22395   -0.242883           
         H         H         0.55661   0.55706   0.06788   0.105852  
         H         H         0.55844   0.62510   0.38417   0.105509  
         B         B         0.59183   0.59169   0.22007   0.584087  
         O         O         0.60815   0.57396   0.13401   -0.337456           
         O         O         0.60725   0.60981   0.30931   -0.337676           
         C         C         0.63392   0.58078   0.17613   0.165386  
         C         C         0.63336   0.60257   0.28170   0.161493  
         C         C         0.65732   0.56856   0.12625   -0.275174           
         C         C         0.65610   0.61411   0.34733   -0.275902           
         C         C         0.68008   0.58008   0.19202   0.162585  
         H         H         0.65778   0.55193   0.04256   0.163672  
         C         C         0.67948   0.60189   0.29739   0.166323  
         H         H         0.65563   0.63062   0.43178   0.163000  
         O         O         0.70622   0.57270   0.16618   -0.337500           
         O         O         0.70518   0.60858   0.34123   -0.338092           
         B         B         0.72153   0.59061   0.25762   0.583045  
         C         C         0.75195   0.59081   0.26066   -0.243028           
         C         C         0.76644   0.57121   0.17749   -0.049839           
         C         C         0.76626   0.61079   0.34236   -0.049125           
         C         C         0.79406   0.57159   0.17565   -0.137137           
         H         H         0.75585   0.55593   0.11010   0.106601  
         C         C         0.79390   0.61108   0.34125   -0.139937           
         H         H         0.75556   0.62595   0.40975   0.106613  
         C         C         0.80839   0.59150   0.25776   0.091831  
         H         H         0.80496   0.55687   0.10635   0.102711  
         H         H         0.80472   0.62616   0.40843   0.101624  
         C         C         0.40484   0.49307   0.25261   0.091612  
         C         C         0.38479   0.47914   0.34015   -0.137198           
         C         C         0.42387   0.47816   0.16705   -0.139886           
         C         C         0.38378   0.45152   0.34215   -0.049138           
         H         H         0.37031   0.49042   0.40945   0.099720  
         C         C         0.42302   0.45055   0.17018   -0.048969           
         H         H         0.43895   0.48858   0.09451   0.101818  
         C         C         0.40298   0.43662   0.25772   -0.241995           
         H         H         0.36829   0.44132   0.41291   0.105552  
         H         H         0.43773   0.43950   0.10080   0.105920  
         B         B         0.40268   0.40621   0.25673   0.583409  
         O         O         0.38370   0.38945   0.33324   -0.337875           
         O         O         0.42201   0.39132   0.17433   -0.339416           
         C         C         0.39154   0.36387   0.29573   0.164309  
         C         C         0.41473   0.36505   0.19954   0.166294  
         C         C         0.37924   0.34008   0.34301   -0.277480           
         C         C         0.42766   0.34265   0.14124   -0.275826           
         C         C         0.39219   0.31767   0.28469   0.164504  
         H         H         0.36151   0.33907   0.41944   0.165021  
         C         C         0.41538   0.31888   0.18855   0.166177  
         H         H         0.44540   0.34366   0.06477   0.165265  
         O         O         0.38493   0.29133   0.30924   -0.339514           
         O         O         0.42322   0.29337   0.15020   -0.337770           
         B         B         0.40429   0.27651   0.22620   0.583242  
         C         C         0.40426   0.24610   0.22303   -0.240956           
         C         C         0.38447   0.23158   0.30910   -0.051163           
         C         C         0.42374   0.23177   0.13722   -0.049330           
         C         C         0.38428   0.20398   0.31021   -0.139000           
         H         H         0.36944   0.24214   0.37886   0.105866  
         C         C         0.42336   0.20413   0.13691   -0.136526           
         H         H         0.43898   0.24246   0.06704   0.105709  
         C         C         0.40369   0.18961   0.22393   0.091289  
         H         H         0.36940   0.19307   0.38140   0.101540  
         H         H         0.43804   0.19337   0.06587   0.101551  
         C         C         0.30826   0.59166   0.24096   0.090670  
         C         C         0.29444   0.61146   0.15364   -0.140375           
         C         C         0.29313   0.57189   0.32311   -0.136604           
         C         C         0.26682   0.61151   0.14831   -0.050590           
         H         H         0.30583   0.62649   0.08665   0.100128  
         C         C         0.26552   0.57184   0.31703   -0.051698           
         H         H         0.30338   0.55689   0.39520   0.102653  
         C         C         0.25171   0.59163   0.22963   -0.239022           
         H         H         0.25677   0.62685   0.07749   0.106710  
         H         H         0.25437   0.55654   0.38393   0.106216  
         B         B         0.22126   0.59137   0.22596   0.580538  
         O         O         0.20537   0.60978   0.14153   -0.337117           
         O         O         0.20539   0.57245   0.30956   -0.337211           
         C         C         0.17940   0.60211   0.17568   0.166947  
         C         C         0.17942   0.57946   0.27722   0.164686  
         C         C         0.15626   0.61430   0.12201   -0.279319           
         C         C         0.15633   0.56695   0.33486   -0.276920           
         C         C         0.13318   0.60184   0.17985   0.165461  
         H         H         0.15616   0.63168   0.04192   0.164801  
         C         C         0.13316   0.57913   0.28109   0.163600  
         H         H         0.15642   0.54968   0.41586   0.164603  
         O         O         0.10725   0.60926   0.14957   -0.337623           
         O         O         0.10715   0.57167   0.31654   -0.336730           
         B         B         0.09137   0.59053   0.23480   0.582337  
         C         C         0.06098   0.59113   0.23694   -0.243005           
         C         C         0.04731   0.61123   0.15148   -0.049890           
         C         C         0.04585   0.57189   0.32360   -0.050865           
         C         C         0.01969   0.61191   0.15082   -0.139173           
         H         H         0.05853   0.62611   0.08153   0.106208  
         C         C         0.01827   0.57284   0.32511   -0.136485           
         H         H         0.05588   0.55636   0.39286   0.106869  
         C         C         0.00454   0.59268   0.23758   0.091936  
         H         H         0.00949   0.62695   0.07891   0.102470  
         H         H         0.00684   0.55838   0.39667   0.100737  
         C         C         0.40742   0.68935   0.24335   0.091294  
         C         C         0.42672   0.70413   0.32817   -0.139660           
         C         C         0.38809   0.70353   0.15481   -0.138430           
         C         C         0.42663   0.73176   0.32522   -0.050225           
         H         H         0.44151   0.69355   0.39930   0.101236  
         C         C         0.38778   0.73116   0.15359   -0.048317           
         H         H         0.37369   0.69250   0.08329   0.101777  
         C         C         0.40704   0.74591   0.23869   -0.241436           
         H         H         0.44161   0.74260   0.39385   0.105103  
         H         H         0.37277   0.74151   0.08237   0.105889  
         B         B         0.40683   0.77636   0.23776   0.583354  
         O         O         0.42591   0.79217   0.31697   -0.338972           
         O         O         0.38776   0.79229   0.15940   -0.336458           
         C         C         0.41835   0.81815   0.28758   0.165704  
         C         C         0.39522   0.81822   0.19275   0.163119  
         C         C         0.43097   0.84119   0.34094   -0.278398           
         C         C         0.38264   0.84143   0.14245   -0.273615           
         C         C         0.41834   0.86440   0.29091   0.164125  
         H         H         0.44870   0.84104   0.41600   0.165817  
         C         C         0.39521   0.86446   0.19610   0.166295  
         H         H         0.36496   0.84157   0.06695   0.164725  
         O         O         0.42570   0.89036   0.32456   -0.338087           
         O         O         0.38754   0.89040   0.16707   -0.339229           
         B         B         0.40641   0.90624   0.24772   0.582704  
         C         C         0.40554   0.93668   0.24979   -0.240028           
         C         C         0.42501   0.95194   0.32983   -0.050466           
         C         C         0.38486   0.95033   0.17036   -0.049247           
         C         C         0.42386   0.97955   0.32980   -0.136012           
         H         H         0.44093   0.94200   0.39543   0.106360  
         C         C         0.38387   0.97794   0.16889   -0.145542           
         H         H         0.36971   0.93908   0.10587   0.106261  
         C         C         0.40343   0.99323   0.24792   0.092594  
         H         H         0.43860   0.99099   0.39627   0.101697  
         H         H         0.36821   0.98808   0.10255   0.106352  
         C         C         0.83780   0.59183   0.25534   -0.069664           
         C         C         0.85095   0.61618   0.22141   0.185238  
         C         C         0.85108   0.56769   0.28578   0.186059  
         C         C         0.83840   0.64038   0.16758   -0.181222           
         N         N         0.87777   0.62087   0.24285   -0.372981           
         C         C         0.83876   0.54315   0.34035   -0.183864           
         N         N         0.87779   0.56350   0.25786   -0.375267           
         C         C         0.85754   0.65980   0.16466   -0.186784           
         H         H         0.81771   0.64244   0.13547   0.125442  
         C         C         0.88206   0.64768   0.21595   0.185807  
         C         C         0.85791   0.52405   0.33735   -0.182057           
         H         H         0.81816   0.54068   0.37614   0.127134  
         C         C         0.88219   0.53671   0.28145   0.187022  
         H         H         0.85516   0.68046   0.13066   0.127934  
         C         C         0.90634   0.66124   0.24230   -0.068845           
         H         H         0.85565   0.50328   0.37000   0.125541  
         C         C         0.90633   0.52367   0.24771   -0.070789           
         C         C         0.93083   0.64829   0.26759   0.183980  
         C         C         0.93060   0.53705   0.21503   0.185444  
         C         C         0.95542   0.66090   0.31466   -0.184514           
         N         N         0.93522   0.62154   0.24375   -0.371675           
         C         C         0.95496   0.52481   0.16196   -0.182684           
         N         N         0.93509   0.56388   0.23699   -0.372271           
         C         C         0.97465   0.64183   0.31223   -0.187617           
         H         H         0.95783   0.68158   0.34624   0.126213  
         C         C         0.96207   0.61729   0.26422   0.183965  
         C         C         0.97420   0.54414   0.15939   -0.185051           
         H         H         0.95721   0.50412   0.13082   0.125542  
         C         C         0.96183   0.56852   0.21031   0.187008  
         H         H         0.99546   0.64432   0.34061   0.129483  
         C         C         0.97512   0.59294   0.23692   -0.071701           
         H         H         0.99488   0.54193   0.12592   0.126373  
         Zn        Zn        0.90663   0.59238   0.24566   0.688172  
         C         C         0.40349   0.16017   0.22648   -0.069867           
         C         C         0.42770   0.14713   0.25836   0.186421  
         C         C         0.37908   0.14682   0.20069   0.183859  
         C         C         0.45206   0.15974   0.30974   -0.182341           
         N         N         0.43200   0.12030   0.23963   -0.376490           
         C         C         0.35454   0.15909   0.15125   -0.182410           
         N         N         0.37455   0.12007   0.22936   -0.371893           
         C         C         0.47107   0.14051   0.31652   -0.182599           
         H         H         0.45442   0.18058   0.33711   0.123856  
         C         C         0.45867   0.11597   0.26713   0.187485  
         C         C         0.33518   0.13987   0.15847   -0.187592           
         H         H         0.35226   0.17971   0.11584   0.126004  
         C         C         0.34766   0.11553   0.21113   0.185307  
         H         H         0.49159   0.14288   0.35211   0.126794  
         C         C         0.47179   0.09170   0.23985   -0.069858           
         H         H         0.31434   0.14212   0.13075   0.129765  
         C         C         0.33445   0.09118   0.24588   -0.072049           
         C         C         0.45840   0.06750   0.20895   0.186324  
         C         C         0.34757   0.06688   0.27560   0.184913  
         C         C         0.47071   0.04329   0.15528   -0.181773           
         N         N         0.43159   0.06296   0.23420   -0.373636           
         C         C         0.33506   0.04238   0.32995   -0.183668           
         N         N         0.37430   0.06251   0.24948   -0.374482           
         C         C         0.45143   0.02403   0.15572   -0.183007           
         H         H         0.49138   0.04116   0.12136   0.124969  
         C         C         0.42709   0.03619   0.21028   0.185665  
         C         C         0.35420   0.02323   0.32997   -0.184990           
         H         H         0.31436   0.04000   0.36357   0.125205  
         C         C         0.37864   0.03573   0.27529   0.188074  
         H         H         0.45362   0.00345   0.12195   0.126339  
         C         C         0.40291   0.02268   0.24425   -0.071319           
         H         H         0.35181   0.00252   0.36420   0.125699  
         Zn        Zn        0.40294   0.09161   0.23781   0.688669  
         C         C         0.90597   0.49425   0.24626   0.091307  
         C         C         0.88603   0.48030   0.16171   -0.137212           
         C         C         0.92534   0.47936   0.32954   -0.138252           
         C         C         0.88535   0.45267   0.16148   -0.049824           
         H         H         0.87143   0.49156   0.09305   0.101009  
         C         C         0.92473   0.45174   0.32872   -0.051685           
         H         H         0.94050   0.48981   0.39840   0.102096  
         C         C         0.90468   0.43779   0.24524   -0.240838           
         H         H         0.86996   0.44243   0.09286   0.105989  
         H         H         0.93970   0.44072   0.39636   0.106847  
         B         B         0.90427   0.40738   0.24555   0.582630  
         O         O         0.88629   0.39144   0.15829   -0.337441           
         O         O         0.92226   0.39162   0.33360   -0.338139           
         C         C         0.89364   0.36548   0.19256   0.162537  
         C         C         0.91549   0.36564   0.29827   0.166691  
         C         C         0.88206   0.34222   0.13443   -0.277254           
         C         C         0.92771   0.34269   0.35611   -0.275803           
         C         C         0.89432   0.31925   0.19193   0.165807  
         H         H         0.86524   0.34194   0.05184   0.163003  
         C         C         0.91612   0.31946   0.29798   0.163074  
         H         H         0.94440   0.34291   0.43981   0.163479  
         O         O         0.88751   0.29321   0.15776   -0.338708           
         O         O         0.92338   0.29358   0.33373   -0.336607           
         B         B         0.90562   0.27752   0.24611   0.583776  
         C         C         0.90558   0.24708   0.24734   -0.243182           
         C         C         0.88549   0.23309   0.16448   -0.050181           
         C         C         0.92486   0.23219   0.33170   -0.048301           
         C         C         0.88477   0.20549   0.16464   -0.140394           
         H         H         0.87052   0.24415   0.09717   0.105765  
         C         C         0.92402   0.20455   0.33269   -0.138042           
         H         H         0.94031   0.24237   0.40024   0.105720  
         C         C         0.90404   0.19057   0.24858   0.094174  
         H         H         0.86953   0.19508   0.09638   0.101927  
         H         H         0.93855   0.19331   0.40225   0.101703  
         C         C         0.90571   0.69067   0.24298   0.089897  
         C         C         0.88561   0.70418   0.32901   -0.135687           
         C         C         0.92484   0.70609   0.15721   -0.138958           
         C         C         0.88445   0.73178   0.32748   -0.051005           
         H         H         0.87126   0.69263   0.40074   0.101937  
         C         C         0.92391   0.73369   0.15761   -0.050621           
         H         H         0.94012   0.69607   0.08679   0.102872  
         C         C         0.90363   0.74716   0.24211   -0.241431           
         H         H         0.86891   0.74161   0.39715   0.106497  
         H         H         0.93877   0.74507   0.08854   0.106182  
         B         B         0.90299   0.77759   0.24092   0.582440  
         O         O         0.88389   0.79331   0.32016   -0.337216           
         O         O         0.92198   0.79359   0.15872   -0.336628           
         C         C         0.89153   0.81934   0.28692   0.162488  
         C         C         0.91461   0.81947   0.18968   0.164727  
         C         C         0.87915   0.84243   0.33935   -0.275113           
         C         C         0.92744   0.84261   0.13591   -0.276784           
         C         C         0.89196   0.86558   0.28530   0.165028  
         H         H         0.86161   0.84242   0.41762   0.164346  
         C         C         0.91511   0.86569   0.18865   0.165064  
         H         H         0.94516   0.84263   0.05928   0.165642  
         O         O         0.88482   0.89150   0.31730   -0.338231           
         O         O         0.92308   0.89168   0.15785   -0.337142           
         B         B         0.90411   0.90743   0.23768   0.581255  
         C         C         0.90397   0.93784   0.23870   -0.239807           
         C         C         0.88410   0.95157   0.32513   -0.051006           
         C         C         0.92347   0.95293   0.15414   -0.049582           
         C         C         0.88385   0.97917   0.32793   -0.137886           
         H         H         0.86905   0.94040   0.39396   0.106134  
         C         C         0.92299   0.98054   0.15502   -0.137990           
         H         H         0.93878   0.94285   0.08393   0.106358  
         C         C         0.90325   0.99429   0.24242   0.090688  
         H         H         0.86893   0.98944   0.39972   0.101197  
         H         H         0.93760   0.99193   0.08430   0.101070  
         C         C         0.90355   0.16112   0.24753   -0.070218           
         C         C         0.87919   0.14783   0.27958   0.185008  
         C         C         0.92767   0.14802   0.21385   0.183868  
         C         C         0.85484   0.16016   0.33216   -0.184285           
         N         N         0.87461   0.12102   0.25708   -0.372766           
         C         C         0.95206   0.16067   0.15951   -0.185917           
         N         N         0.93197   0.12118   0.23600   -0.373019           
         C         C         0.83550   0.14090   0.33375   -0.185658           
         H         H         0.85264   0.18083   0.36383   0.125913  
         C         C         0.84781   0.11650   0.28301   0.186251  
         C         C         0.97116   0.14152   0.15578   -0.181324           
         H         H         0.95442   0.18149   0.12869   0.128423  
         C         C         0.95870   0.11696   0.20887   0.185689  
         H         H         0.81478   0.14313   0.36630   0.126612  
         C         C         0.83446   0.09211   0.25671   -0.073184           
         H         H         0.99178   0.14394   0.12009   0.126054  
         C         C         0.97194   0.09278   0.23928   -0.068621           
         C         C         0.84748   0.06783   0.22684   0.184821  
         C         C         0.95870   0.06838   0.27057   0.185398  
         C         C         0.83480   0.04340   0.17755   -0.186944           
         N         N         0.87433   0.06349   0.24569   -0.372021           
         C         C         0.97109   0.04395   0.32199   -0.180528           
         N         N         0.93187   0.06386   0.24794   -0.374012           
         C         C         0.85400   0.02433   0.17240   -0.183694           
         H         H         0.81395   0.04100   0.15018   0.129011  
         C         C         0.87865   0.03679   0.21986   0.185390  
         C         C         0.95186   0.02462   0.32217   -0.183427           
         H         H         0.99177   0.04173   0.35388   0.124820  
         C         C         0.92743   0.03701   0.27205   0.186445  
         H         H         0.85156   0.00373   0.13899   0.126492  
         C         C         0.90306   0.02370   0.24463   -0.070249           
         H         H         0.95415   0.00386   0.35360   0.125252  
         C         C         0.50120   0.09144   0.24297   0.092431  
         C         C         0.51487   0.07127   0.32794   -0.139094           
         C         C         0.51642   0.11115   0.16086   -0.140162           
         C         C         0.54249   0.07071   0.32984   -0.050056           
         H         H         0.50340   0.05635   0.39555   0.101368  
         C         C         0.54403   0.11071   0.16391   -0.048843           
         H         H         0.50622   0.12646   0.09118   0.102404  
         C         C         0.55769   0.09044   0.24790   -0.240643           
         H         H         0.55250   0.05509   0.39844   0.106536  
         H         H         0.55528   0.12597   0.09736   0.105805  
         B         B         0.58812   0.09005   0.24949   0.582909  
         O         O         0.60356   0.07128   0.33397   -0.338795           
         O         O         0.60440   0.10866   0.16642   -0.338568           
         C         C         0.62973   0.07863   0.30280   0.164877  
         C         C         0.63018   0.10134   0.20178   0.167622  
         C         C         0.65267   0.06634   0.35988   -0.275291           
         C         C         0.65351   0.11380   0.14826   -0.276892           
         C         C         0.67604   0.07879   0.30620   0.160938  
         H         H         0.65237   0.04904   0.44062   0.164554  
         C         C         0.67640   0.10156   0.20545   0.164837  
         H         H         0.65384   0.13120   0.06834   0.164537  
         O         O         0.70195   0.07161   0.34152   -0.336688           
         O         O         0.70244   0.10924   0.17492   -0.336972           
         B         B         0.71804   0.09061   0.25972   0.581854  
         C         C         0.74847   0.09108   0.26111   -0.240036           
         C         C         0.76301   0.07184   0.34848   -0.052906           
         C         C         0.76282   0.11085   0.17368   -0.049932           
         C         C         0.79064   0.07236   0.34833   -0.136246           
         H         H         0.75250   0.05664   0.42004   0.106034  
         C         C         0.79045   0.11118   0.17204   -0.139227           
         H         H         0.75213   0.12576   0.10315   0.105841  
         C         C         0.80500   0.09194   0.25937   0.092601  
         H         H         0.80155   0.05785   0.42035   0.101661  
         H         H         0.80118   0.12606   0.09948   0.102047  
         C         C         0.30501   0.09119   0.25137   0.093540  
         C         C         0.29006   0.07180   0.16862   -0.137417           
         C         C         0.29108   0.11068   0.33916   -0.140288           
         C         C         0.26244   0.07186   0.17407   -0.049210           
         H         H         0.30043   0.05707   0.09629   0.102161  
         C         C         0.26346   0.11094   0.34306   -0.049252           
         H         H         0.30235   0.12537   0.40682   0.100995  
         C         C         0.24854   0.09152   0.26053   -0.243199           
         H         H         0.25140   0.05688   0.10696   0.105996  
         H         H         0.25327   0.12611   0.41332   0.105900  
         B         B         0.21814   0.09176   0.26256   0.582555  
         O         O         0.20218   0.07283   0.18357   -0.336485           
         O         O         0.20245   0.11076   0.34229   -0.337212           
         C         C         0.17627   0.08030   0.21619   0.161782  
         C         C         0.17642   0.10321   0.31243   0.163614  
         C         C         0.15306   0.06793   0.16350   -0.274876           
         C         C         0.15338   0.11573   0.36581   -0.275843           
         C         C         0.13003   0.08046   0.21661   0.164482  
         H         H         0.15292   0.05056   0.08579   0.164315  
         C         C         0.13016   0.10336   0.31286   0.165829  
         H         H         0.15354   0.13332   0.44164   0.164675  
         O         O         0.10407   0.07330   0.18286   -0.337184           
         O         O         0.10422   0.11112   0.34183   -0.338412           
         B         B         0.08828   0.09255   0.25935   0.581683  
         C         C         0.05786   0.09307   0.25199   -0.241243           
         C         C         0.04377   0.07347   0.16556   -0.050771           
         C         C         0.04310   0.11293   0.33105   -0.048008           
         C         C         0.01616   0.07355   0.15950   -0.138146           
         H         H         0.05468   0.05831   0.09950   0.106729  
         C         C         0.01548   0.11287   0.32607   -0.141464           
         H         H         0.05341   0.12816   0.40043   0.105826  
         C         C         0.00137   0.09310   0.24108   0.092385  
         H         H         0.00564   0.05875   0.08819   0.101922  
         H         H         0.00432   0.12777   0.39233   0.101254  
         Zn        Zn        0.90299   0.09228   0.24602   0.687628  
         C         C         0.47162   0.64014   0.65830   -0.180839           
         C         C         0.45239   0.65916   0.65877   -0.185060           
         C         C         0.45930   0.61563   0.71357   0.184835  
         C         C         0.42803   0.64651   0.71350   0.187661  
         N         N         0.43254   0.61978   0.73973   -0.375465           
         C         C         0.45947   0.56704   0.77664   0.186841  
         C         C         0.47194   0.54279   0.83032   -0.182822           
         C         C         0.45283   0.52334   0.83189   -0.185100           
         C         C         0.42840   0.53543   0.77893   0.186055  
         N         N         0.43272   0.56228   0.75306   -0.374115           
         C         C         0.37987   0.53473   0.71969   0.185226  
         C         C         0.35554   0.52210   0.66806   -0.184045           
         C         C         0.33633   0.54117   0.66561   -0.187206           
         C         C         0.34862   0.56569   0.71658   0.185843  
         N         N         0.37536   0.56149   0.74212   -0.373728           
         C         C         0.34835   0.61427   0.77367   0.185144  
         C         C         0.33573   0.63850   0.82462   -0.185501           
         C         C         0.35492   0.65785   0.82666   -0.186355           
         C         C         0.37946   0.64579   0.77497   0.187694  
         N         N         0.37518   0.61900   0.75103   -0.371892           
         Zn        Zn        0.40397   0.59062   0.74613   0.688750  
         C         C         0.33529   0.58986   0.74400   -0.069854           
         C         C         0.40425   0.52182   0.74926   -0.069915           
         C         C         0.47260   0.59147   0.74430   -0.069124           
         C         C         0.40364   0.65939   0.74280   -0.072492           
         H         H         0.31573   0.53873   0.63182   0.128946  
         H         H         0.35327   0.50138   0.63737   0.125446  
         H         H         0.45522   0.50269   0.86577   0.128722  
         H         H         0.49261   0.54069   0.86263   0.125172  
         H         H         0.49225   0.64267   0.62317   0.127160  
         H         H         0.45466   0.67988   0.62499   0.124435  
         H         H         0.35251   0.67841   0.86044   0.129831  
         H         H         0.31491   0.64060   0.85452   0.125882  
         C         C         0.50201   0.59181   0.74126   0.089914  
         C         C         0.51635   0.57207   0.65836   -0.139404           
         C         C         0.51654   0.61193   0.82037   -0.137288           
         C         C         0.54397   0.57239   0.65507   -0.049427           
         H         H         0.50542   0.55687   0.59274   0.102973  
         C         C         0.54416   0.61249   0.81473   -0.049911           
         H         H         0.50579   0.62677   0.88970   0.101532  
         C         C         0.55849   0.59268   0.73235   -0.241132           
         H         H         0.55455   0.55706   0.58849   0.107595  
         H         H         0.55488   0.62807   0.87878   0.105917  
         B         B         0.58892   0.59273   0.72936   0.583615  
         O         O         0.60448   0.57274   0.65864   -0.337500           
         O         O         0.60502   0.61239   0.80013   -0.340103           
         C         C         0.63052   0.57997   0.68999   0.166564  
         C         C         0.63086   0.60402   0.77500   0.166029  
         C         C         0.65345   0.56628   0.64718   -0.275405           
         C         C         0.65417   0.61650   0.82539   -0.276647           
         C         C         0.67675   0.57876   0.69755   0.164672  
         H         H         0.65321   0.54782   0.57969   0.166131  
         C         C         0.67709   0.60279   0.78276   0.166085  
         H         H         0.65441   0.63485   0.89405   0.165287  
         O         O         0.70257   0.57016   0.67482   -0.339147           
         O         O         0.70311   0.60977   0.81666   -0.338670           
         B         B         0.71869   0.58955   0.74855   0.584863  
         C         C         0.74913   0.58921   0.75262   -0.240745           
         C         C         0.76381   0.56981   0.66884   -0.050508           
         C         C         0.76339   0.60879   0.83828   -0.050843           
         C         C         0.79145   0.57030   0.66827   -0.137317           
         H         H         0.75341   0.55466   0.59931   0.105195  
         C         C         0.79102   0.60895   0.84037   -0.135587           
         H         H         0.75260   0.62371   0.90713   0.105795  
         C         C         0.80573   0.58988   0.75382   0.090371  
         H         H         0.80242   0.55583   0.59736   0.101190  
         H         H         0.80161   0.62362   0.91240   0.101128  
         C         C         0.40491   0.49239   0.74683   0.089342  
         C         C         0.38551   0.47675   0.82867   -0.135263           
         C         C         0.42530   0.47909   0.66215   -0.136844           
         C         C         0.38645   0.44914   0.82534   -0.051564           
         H         H         0.37003   0.48657   0.89859   0.102797  
         C         C         0.42645   0.45151   0.66078   -0.049923           
         H         H         0.43997   0.49086   0.59444   0.100814  
         C         C         0.40701   0.43589   0.74224   -0.240516           
         H         H         0.37136   0.43759   0.89140   0.106371  
         H         H         0.44231   0.44187   0.59291   0.106139  
         B         B         0.40782   0.40547   0.73941   0.581095  
         O         O         0.38871   0.38894   0.81599   -0.337029           
         O         O         0.42718   0.39027   0.65844   -0.337204           
         C         C         0.39610   0.36331   0.77854   0.167362  
         C         C         0.41949   0.36403   0.68416   0.161773  
         C         C         0.38310   0.33986   0.82498   -0.276565           
         C         C         0.43212   0.34125   0.62860   -0.277429           
         C         C         0.39561   0.31713   0.76838   0.166005  
         H         H         0.36519   0.33944   0.89994   0.165770  
         C         C         0.41918   0.31778   0.67571   0.166031  
         H         H         0.45011   0.34168   0.55433   0.165635  
         O         O         0.38761   0.29101   0.79258   -0.338239           
         O         O         0.42668   0.29202   0.64091   -0.338446           
         B         B         0.40704   0.27565   0.71422   0.582384  
         C         C         0.40687   0.24521   0.71334   -0.239976           
         C         C         0.38687   0.23067   0.79741   -0.049616           
         C         C         0.42691   0.23085   0.63277   -0.050867           
         C         C         0.38705   0.20304   0.80204   -0.138150           
         H         H         0.37142   0.24122   0.86364   0.106128  
         C         C         0.42691   0.20322   0.63591   -0.138715           
         H         H         0.44238   0.24152   0.56458   0.106293  
         C         C         0.40702   0.18866   0.72087   0.091747  
         H         H         0.37206   0.19219   0.87298   0.103020  
         H         H         0.44213   0.19243   0.56974   0.101255  
         C         C         0.30586   0.58972   0.74134   0.090442  
         C         C         0.29187   0.60943   0.65440   -0.136236           
         C         C         0.29096   0.56996   0.82537   -0.137526           
         C         C         0.26426   0.60949   0.65243   -0.050287           
         H         H         0.30306   0.62432   0.58474   0.102219  
         C         C         0.26334   0.56975   0.82093   -0.050097           
         H         H         0.30142   0.55505   0.89691   0.102451  
         C         C         0.24938   0.58958   0.73494   -0.241609           
         H         H         0.25399   0.62481   0.58276   0.105988  
         H         H         0.25237   0.55435   0.88811   0.105838  
         B         B         0.21897   0.58977   0.73098   0.583380  
         O         O         0.20384   0.60994   0.65760   -0.338854           
         O         O         0.20239   0.57006   0.80092   -0.338549           
         C         C         0.17761   0.60267   0.68477   0.165686  
         C         C         0.17673   0.57848   0.77157   0.166097  
         C         C         0.15501   0.61645   0.63700   -0.277623           
         C         C         0.15312   0.56591   0.81902   -0.278307           
         C         C         0.13140   0.60391   0.68482   0.166453  
         H         H         0.15575   0.63505   0.56835   0.166299  
         C         C         0.13052   0.57972   0.77157   0.167249  
         H         H         0.15239   0.54736   0.88807   0.166754  
         O         O         0.10572   0.61248   0.65735   -0.338663           
         O         O         0.10432   0.57259   0.80063   -0.338501           
         B         B         0.08916   0.59293   0.72927   0.582006  
         C         C         0.05873   0.59333   0.73066   -0.239176           
         C         C         0.04436   0.61330   0.64865   -0.049202           
         C         C         0.04425   0.57335   0.81524   -0.050952           
         C         C         0.01672   0.61313   0.64986   -0.139645           
         H         H         0.05502   0.62874   0.57989   0.106032  
         C         C         0.01663   0.57339   0.81832   -0.137646           
         H         H         0.05485   0.55797   0.88233   0.106667  
         C         C         0.00224   0.59316   0.73470   0.090996  
         H         H         0.00589   0.62814   0.58135   0.101577  
         H         H         0.00576   0.55837   0.88878   0.102030  
         C         C         0.40315   0.68879   0.73586   0.091061  
         C         C         0.42276   0.70420   0.81337   -0.136515           
         C         C         0.38287   0.70226   0.65125   -0.139542           
         C         C         0.42219   0.73179   0.80505   -0.050416           
         H         H         0.43801   0.69424   0.88448   0.104917  
         C         C         0.38209   0.72985   0.64482   -0.049896           
         H         H         0.36792   0.69060   0.58828   0.101472  
         C         C         0.40179   0.74523   0.72147   -0.242085           
         H         H         0.43737   0.74324   0.86798   0.107217  
         H         H         0.36628   0.73966   0.57733   0.106504  
         B         B         0.40144   0.77565   0.71954   0.582427  
         O         O         0.42064   0.79105   0.79998   -0.336944           
         O         O         0.38251   0.79191   0.64225   -0.337998           
         C         C         0.41340   0.81712   0.77211   0.164683  
         C         C         0.39030   0.81773   0.67712   0.164958  
         C         C         0.42627   0.83981   0.82784   -0.275384           
         C         C         0.37803   0.84124   0.62874   -0.276823           
         C         C         0.41404   0.86328   0.77930   0.166484  
         H         H         0.44386   0.83923   0.90409   0.165018  
         C         C         0.39092   0.86398   0.68445   0.162078  
         H         H         0.36032   0.84180   0.55355   0.164727  
         O         O         0.42187   0.88893   0.81585   -0.336688           
         O         O         0.38372   0.89020   0.65829   -0.337821           
         B         B         0.40307   0.90539   0.73954   0.582209  
         C         C         0.40389   0.93578   0.74297   -0.241966           
         C         C         0.42418   0.94935   0.82658   -0.049618           
         C         C         0.38468   0.95103   0.66062   -0.048813           
         C         C         0.42515   0.97697   0.82871   -0.138523           
         H         H         0.43906   0.93806   0.89324   0.105859  
         C         C         0.38584   0.97862   0.66114   -0.136279           
         H         H         0.36906   0.94106   0.59244   0.106238  
         C         C         0.40602   0.99223   0.74574   0.089923  
         H         H         0.44049   0.98710   0.89779   0.102048  
         H         H         0.37143   0.99013   0.59230   0.100728  
         C         C         0.83521   0.59046   0.75148   -0.071517           
         C         C         0.84813   0.61513   0.72212   0.185820  
         C         C         0.84875   0.56627   0.77737   0.183924  
         C         C         0.83533   0.63956   0.67433   -0.185663           
         N         N         0.87499   0.61991   0.74088   -0.373391           
         C         C         0.83661   0.54149   0.82952   -0.183979           
         N         N         0.87555   0.56235   0.75033   -0.371880           
         C         C         0.85444   0.65903   0.67042   -0.183184           
         H         H         0.81445   0.64171   0.64748   0.128279  
         C         C         0.87916   0.64683   0.71680   0.185783  
         C         C         0.85601   0.52262   0.82748   -0.184439           
         H         H         0.81597   0.53874   0.86391   0.126167  
         C         C         0.88028   0.53559   0.77406   0.185470  
         H         H         0.85185   0.67977   0.63889   0.125797  
         C         C         0.90350   0.66029   0.74236   -0.069829           
         H         H         0.85391   0.50180   0.85925   0.125461  
         C         C         0.90478   0.52289   0.74425   -0.070778           
         C         C         0.92794   0.64738   0.76951   0.186956  
         C         C         0.92886   0.53662   0.71123   0.186704  
         C         C         0.95224   0.66007   0.82117   -0.183078           
         N         N         0.93259   0.62079   0.74343   -0.374904           
         C         C         0.95337   0.52464   0.65825   -0.182774           
         N         N         0.93300   0.56349   0.73293   -0.375209           
         C         C         0.97162   0.64119   0.81949   -0.184715           
         H         H         0.95431   0.68068   0.85506   0.124341  
         C         C         0.95941   0.61677   0.76650   0.187695  
         C         C         0.97236   0.54419   0.65534   -0.183843           
         H         H         0.95587   0.50398   0.62742   0.125073  
         C         C         0.95974   0.56836   0.70675   0.187050  
         H         H         0.99227   0.64367   0.85195   0.128609  
         C         C         0.97281   0.59278   0.73565   -0.070595           
         H         H         0.99306   0.54225   0.62178   0.127360  
         Zn        Zn        0.90400   0.59174   0.73906   0.688016  
         C         C         0.40711   0.15922   0.72554   -0.069405           
         C         C         0.43130   0.14621   0.75901   0.185110  
         C         C         0.38285   0.14571   0.69802   0.184267  
         C         C         0.45559   0.15886   0.81096   -0.184970           
         N         N         0.43571   0.11936   0.73997   -0.372426           
         C         C         0.35838   0.15776   0.64530   -0.180413           
         N         N         0.37842   0.11899   0.72786   -0.374396           
         C         C         0.47472   0.13973   0.81609   -0.184931           
         H         H         0.45788   0.17964   0.84039   0.127747  
         C         C         0.46239   0.11511   0.76706   0.185909  
         C         C         0.33915   0.13843   0.65125   -0.182406           
         H         H         0.35600   0.17831   0.60904   0.124104  
         C         C         0.35160   0.11431   0.70738   0.185695  
         H         H         0.49530   0.14219   0.85028   0.125587  
         C         C         0.47564   0.09080   0.74218   -0.072863           
         H         H         0.31841   0.14051   0.62062   0.125103  
         C         C         0.33843   0.09010   0.74535   -0.068939           
         C         C         0.46249   0.06629   0.71600   0.186840  
         C         C         0.35164   0.06604   0.77959   0.185434  
         C         C         0.47502   0.04183   0.66823   -0.186412           
         N         N         0.43563   0.06176   0.73862   -0.373558           
         C         C         0.33928   0.04178   0.83873   -0.180888           
         N         N         0.37830   0.06162   0.75104   -0.374440           
         C         C         0.45572   0.02254   0.66796   -0.184074           
         H         H         0.49585   0.03957   0.63866   0.126248  
         C         C         0.43117   0.03491   0.71676   0.186333  
         C         C         0.35832   0.02255   0.83654   -0.185289           
         H         H         0.31878   0.03957   0.87740   0.125098  
         C         C         0.38261   0.03491   0.77820   0.187281  
         H         H         0.45807   0.00185   0.63735   0.125910  
         C         C         0.40674   0.02166   0.74684   -0.070196           
         H         H         0.35602   0.00190   0.87176   0.126291  
         Zn        Zn        0.40699   0.09049   0.73783   0.688955  
         C         C         0.90551   0.49345   0.74848   0.090449  
         C         C         0.88613   0.47814   0.66803   -0.137017           
         C         C         0.92571   0.47981   0.83282   -0.136844           
         C         C         0.88688   0.45054   0.67230   -0.050007           
         H         H         0.87082   0.48829   0.59865   0.101690  
         C         C         0.92675   0.45220   0.83442   -0.050001           
         H         H         0.94032   0.49128   0.90015   0.101527  
         C         C         0.90732   0.43693   0.75433   -0.241943           
         H         H         0.87175   0.43927   0.60763   0.106358  
         H         H         0.94246   0.44227   0.90205   0.105830  
         B         B         0.90786   0.40649   0.75478   0.584795  
         O         O         0.88737   0.39076   0.69017   -0.339794           
         O         O         0.92830   0.39048   0.81761   -0.338180           
         C         C         0.89524   0.36479   0.71395   0.167065  
         C         C         0.91996   0.36458   0.79189   0.164238  
         C         C         0.88159   0.34183   0.66959   -0.274111           
         C         C         0.93305   0.34128   0.83497   -0.276656           
         C         C         0.89477   0.31853   0.71152   0.164597  
         H         H         0.86267   0.34215   0.60639   0.165254  
         C         C         0.91934   0.31830   0.79145   0.165527  
         H         H         0.95192   0.34098   0.89850   0.166676  
         O         O         0.88652   0.29266   0.68381   -0.337210           
         O         O         0.92708   0.29227   0.81709   -0.337951           
         B         B         0.90665   0.27666   0.75012   0.581874  
         C         C         0.90662   0.24625   0.74944   -0.238400           
         C         C         0.88667   0.23172   0.66897   -0.049873           
         C         C         0.92682   0.23197   0.82906   -0.051964           
         C         C         0.88703   0.20411   0.66698   -0.137399           
         H         H         0.87109   0.24227   0.60380   0.106152  
         C         C         0.92694   0.20436   0.82927   -0.138478           
         H         H         0.94225   0.24269   0.89445   0.106203  
         C         C         0.90710   0.18979   0.74796   0.090281  
         H         H         0.87205   0.19321   0.59919   0.102549  
         H         H         0.94215   0.19359   0.89576   0.101389  
         C         C         0.90368   0.68971   0.74054   0.090457  
         C         C         0.88437   0.70424   0.82651   -0.140346           
         C         C         0.92338   0.70405   0.65254   -0.136119           
         C         C         0.88456   0.73187   0.82308   -0.048026           
         H         H         0.86955   0.69349   0.89919   0.101780  
         C         C         0.92377   0.73168   0.65066   -0.048676           
         H         H         0.93796   0.69312   0.58181   0.101828  
         C         C         0.90426   0.74620   0.73498   -0.242676           
         H         H         0.86960   0.74258   0.89255   0.105238  
         H         H         0.93897   0.74220   0.57915   0.105777  
         B         B         0.90420   0.77662   0.73098   0.582523  
         O         O         0.88493   0.79227   0.80873   -0.337697           
         O         O         0.92330   0.79268   0.65024   -0.337018           
         C         C         0.89247   0.81830   0.77636   0.165609  
         C         C         0.91575   0.81860   0.68089   0.163785  
         C         C         0.87978   0.84124   0.82857   -0.276390           
         C         C         0.92841   0.84194   0.62855   -0.276622           
         C         C         0.89246   0.86455   0.77623   0.165307  
         H         H         0.86198   0.84095   0.90456   0.165307  
         C         C         0.91574   0.86490   0.68079   0.165341  
         H         H         0.94623   0.84223   0.55274   0.165594  
         O         O         0.88497   0.89039   0.80856   -0.338455           
         O         O         0.92335   0.89101   0.65016   -0.339023           
         B         B         0.90432   0.90656   0.73089   0.583579  
         C         C         0.90487   0.93700   0.73471   -0.241299           
         C         C         0.88532   0.95129   0.82036   -0.050660           
         C         C         0.92511   0.95161   0.65340   -0.049764           
         C         C         0.88601   0.97890   0.82487   -0.135329           
         H         H         0.86977   0.94054   0.88740   0.106334  
         C         C         0.92556   0.97923   0.65586   -0.138772           
         H         H         0.94033   0.94116   0.58460   0.106523  
         C         C         0.90602   0.99355   0.74150   0.089879  
         H         H         0.87132   0.98952   0.89676   0.102544  
         H         H         0.94080   0.99021   0.58796   0.101842  
         C         C         0.90726   0.16036   0.74812   -0.070283           
         C         C         0.88300   0.14700   0.78190   0.186386  
         C         C         0.93151   0.14733   0.71562   0.186958  
         C         C         0.85883   0.15924   0.83841   -0.183839           
         N         N         0.87836   0.12027   0.75841   -0.373690           
         C         C         0.95599   0.16004   0.66355   -0.184931           
         N         N         0.93587   0.12047   0.73790   -0.373534           
         C         C         0.83953   0.13998   0.84192   -0.180946           
         H         H         0.85673   0.17986   0.87115   0.126342  
         C         C         0.85163   0.11574   0.78723   0.184170  
         C         C         0.97518   0.14094   0.66226   -0.183837           
         H         H         0.95840   0.18086   0.63224   0.127333  
         C         C         0.96267   0.11623   0.71241   0.185264  
         H         H         0.81898   0.14213   0.87860   0.124918  
         C         C         0.83815   0.09157   0.75763   -0.068274           
         H         H         0.99594   0.14354   0.63050   0.125840  
         C         C         0.97577   0.09180   0.73911   -0.072339           
         C         C         0.85116   0.06744   0.72415   0.186591  
         C         C         0.96234   0.06740   0.76904   0.186645  
         C         C         0.83851   0.04328   0.67040   -0.182748           
         N         N         0.87797   0.06297   0.74488   -0.374456           
         C         C         0.97462   0.04285   0.81964   -0.183188           
         N         N         0.93547   0.06302   0.74740   -0.374157           
         C         C         0.85760   0.02412   0.66596   -0.185582           
         H         H         0.81775   0.04111   0.63972   0.125254  
         C         C         0.88218   0.03632   0.71719   0.185986  
         C         C         0.95527   0.02363   0.82089   -0.185339           
         H         H         0.99533   0.04046   0.85055   0.125549  
         C         C         0.93087   0.03616   0.77141   0.186989  
         H         H         0.85512   0.00362   0.63074   0.127981  
         C         C         0.90642   0.02299   0.74360   -0.071019           
         H         H         0.95749   0.00287   0.85292   0.126402  
         C         C         0.50508   0.09112   0.74269   0.091579  
         C         C         0.51948   0.07169   0.82944   -0.138174           
         C         C         0.51959   0.11087   0.65602   -0.135160           
         C         C         0.54710   0.07191   0.82885   -0.050194           
         H         H         0.50864   0.05670   0.90039   0.101870  
         C         C         0.54721   0.11141   0.65818   -0.052736           
         H         H         0.50883   0.12550   0.58393   0.102079  
         C         C         0.56158   0.09187   0.74403   -0.240238           
         H         H         0.55769   0.05678   0.89815   0.105949  
         H         H         0.55787   0.12685   0.58954   0.106134  
         B         B         0.59198   0.09199   0.74497   0.584801  
         O         O         0.60735   0.07265   0.82480   -0.338702           
         O         O         0.60829   0.11117   0.66684   -0.338289           
         C         C         0.63349   0.07999   0.79415   0.164399  
         C         C         0.63405   0.10345   0.69982   0.164695  
         C         C         0.65632   0.06693   0.84541   -0.277495           
         C         C         0.65746   0.11618   0.65020   -0.276314           
         C         C         0.67974   0.07955   0.79462   0.167433  
         H         H         0.65588   0.04891   0.91986   0.165672  
         C         C         0.68028   0.10326   0.70280   0.165406  
         H         H         0.65789   0.13422   0.57594   0.165330  
         O         O         0.70552   0.07164   0.82566   -0.338286           
         O         O         0.70641   0.11097   0.67506   -0.338309           
         B         B         0.72180   0.09132   0.75222   0.582417  
         C         C         0.75222   0.09148   0.75587   -0.240598           
         C         C         0.76632   0.07143   0.83890   -0.049703           
         C         C         0.76696   0.11170   0.67530   -0.049841           
         C         C         0.79396   0.07155   0.84098   -0.139626           
         H         H         0.75542   0.05588   0.90518   0.106479  
         C         C         0.79458   0.11171   0.67639   -0.138955           
         H         H         0.75658   0.12718   0.60775   0.106456  
         C         C         0.80872   0.09162   0.75900   0.092602  
         H         H         0.80455   0.05635   0.90926   0.102194  
         H         H         0.80569   0.12694   0.60914   0.101836  
         C         C         0.30903   0.08984   0.74907   0.092253  
         C         C         0.29447   0.06952   0.67224   -0.139821           
         C         C         0.29477   0.10984   0.82991   -0.140076           
         C         C         0.26686   0.06915   0.67685   -0.048991           
         H         H         0.30522   0.05429   0.60640   0.102389  
         C         C         0.26714   0.10957   0.83366   -0.048675           
         H         H         0.30579   0.12515   0.89392   0.102135  
         C         C         0.25260   0.08917   0.75767   -0.241097           
         H         H         0.25608   0.05342   0.61455   0.106150  
         H         H         0.25662   0.12499   0.89986   0.106791  
         B         B         0.22218   0.08878   0.76130   0.580867  
         O         O         0.20641   0.06879   0.69112   -0.337904           
         O         O         0.20629   0.10840   0.83293   -0.337094           
         C         C         0.18042   0.07654   0.71754   0.165772  
         C         C         0.18036   0.10052   0.80327   0.166337  
         C         C         0.15733   0.06348   0.66866   -0.277334           
         C         C         0.15719   0.11355   0.84875   -0.276766           
         C         C         0.13416   0.07657   0.71381   0.162780  
         H         H         0.15741   0.04513   0.59998   0.166541  
         C         C         0.13412   0.10051   0.79991   0.166035  
         H         H         0.15713   0.13189   0.91741   0.166217  
         O         O         0.10820   0.06897   0.68236   -0.338192           
         O         O         0.10819   0.10848   0.82494   -0.337790           
         B         B         0.09230   0.08903   0.74999   0.582498  
         C         C         0.06186   0.08999   0.74308   -0.240638           
         C         C         0.04703   0.07089   0.65709   -0.052710           
         C         C         0.04776   0.11016   0.82380   -0.049195           
         C         C         0.01942   0.07185   0.65279   -0.135746           
         H         H         0.05732   0.05540   0.59020   0.106458  
         C         C         0.02012   0.11078   0.82240   -0.138383           
         H         H         0.05860   0.12507   0.89279   0.105640  
         C         C         0.00525   0.09159   0.73733   0.091415  
         H         H         0.00840   0.05744   0.58130   0.101422  
         H         H         0.00963   0.12575   0.89222   0.103141  
         Zn        Zn        0.90692   0.09178   0.74600   0.688847 

