
##########################################################################
#               Crystallographic Information Format file
#               Produced by PyCifRW module
#
#  This is a CIF file.  CIF has been adopted by the International
#  Union of Crystallography as the standard for data archiving and
#  transmission.
#
#  For information on this file format, follow the CIF links at
#  http://www.iucr.org
##########################################################################

data_image0

_cell_length_a                          50.2945
_cell_length_b                          50.3049
_cell_length_c                          8.12093
_cell_angle_alpha                       89.6085
_cell_angle_beta                        89.5977
_cell_angle_gamma                       90.3969
_symmetry_space_group_name_H-M          'P 1'
_space_group_name_Hall                  'P 1'
loop_
  _atom_site_type_symbol
  _atom_site_label
  _atom_site_fract_x
  _atom_site_fract_y
  _atom_site_fract_z
  _atom_site_charge
         C         C         0.47825   0.63878   0.15444   -0.183078           
         C         C         0.45925   0.65807   0.15320   -0.182306           
         C         C         0.46549   0.61444   0.20859   0.189177  
         C         C         0.43470   0.64575   0.20703   0.188891  
         N         N         0.43866   0.61886   0.23312   -0.378670           
         C         C         0.46495   0.56631   0.27269   0.188542  
         C         C         0.47721   0.54172   0.32226   -0.182475           
         C         C         0.45773   0.52265   0.32501   -0.180011           
         C         C         0.43338   0.53533   0.27601   0.189122  
         N         N         0.43797   0.56224   0.25206   -0.378174           
         C         C         0.38557   0.53579   0.20900   0.189269  
         C         C         0.36131   0.52356   0.15255   -0.179163           
         C         C         0.34235   0.54287   0.14970   -0.181139           
         C         C         0.35482   0.56708   0.20500   0.190369  
         N         N         0.38152   0.56265   0.23277   -0.380900           
         C         C         0.35511   0.61490   0.27091   0.189535  
         C         C         0.34275   0.63940   0.32011   -0.180196           
         C         C         0.36215   0.65855   0.31924   -0.181419           
         C         C         0.38660   0.64593   0.27041   0.190471  
         N         N         0.38213   0.61903   0.24913   -0.381172           
         Cu        Cu        0.41011   0.59069   0.24315   0.654458  
         C         C         0.34151   0.59104   0.23695   -0.066700           
         C         C         0.40921   0.52213   0.24424   -0.068473           
         C         C         0.47862   0.59030   0.23965   -0.068648           
         C         C         0.41078   0.65928   0.23755   -0.067716           
         H         H         0.32177   0.54085   0.11398   0.126272  
         H         H         0.35907   0.50288   0.11968   0.124071  
         H         H         0.45977   0.50180   0.35560   0.124743  
         H         H         0.49806   0.53926   0.34996   0.126191  
         H         H         0.49906   0.64087   0.12224   0.125093  
         H         H         0.46164   0.67877   0.11893   0.128030  
         H         H         0.36008   0.67939   0.34752   0.125045  
         H         H         0.32192   0.64176   0.34986   0.126121  
         C         C         0.50811   0.59026   0.23490   0.092785  
         C         C         0.52220   0.57112   0.14420   -0.138814           
         C         C         0.52295   0.60966   0.31907   -0.134778           
         C         C         0.54986   0.57152   0.13630   -0.050316           
         H         H         0.51104   0.55629   0.07636   0.100768  
         C         C         0.55059   0.61020   0.31031   -0.051852           
         H         H         0.51246   0.62400   0.39449   0.100903  
         C         C         0.56467   0.59118   0.21844   -0.243245           
         H         H         0.56015   0.55674   0.06279   0.105981  
         H         H         0.56152   0.62522   0.37853   0.106167  
         B         B         0.59514   0.59174   0.21325   0.584574  
         O         O         0.61136   0.57400   0.12566   -0.337723           
         O         O         0.61070   0.60990   0.30209   -0.337528           
         C         C         0.63725   0.58088   0.16667   0.164576  
         C         C         0.63680   0.60271   0.27287   0.162770  
         C         C         0.66068   0.56866   0.11600   -0.275073           
         C         C         0.65960   0.61430   0.33834   -0.276513           
         C         C         0.68350   0.58019   0.18203   0.165393  
         H         H         0.66112   0.55194   0.03231   0.162682  
         C         C         0.68300   0.60205   0.28798   0.164255  
         H         H         0.65908   0.63087   0.42319   0.162952  
         O         O         0.70965   0.57266   0.15636   -0.338951           
         O         O         0.70879   0.60863   0.33222   -0.337004           
         B         B         0.72507   0.59058   0.24787   0.582489  
         C         C         0.75554   0.59072   0.25085   -0.241256           
         C         C         0.77005   0.57093   0.16849   -0.049991           
         C         C         0.76990   0.61077   0.33247   -0.049225           
         C         C         0.79771   0.57114   0.16802   -0.138558           
         H         H         0.75945   0.55559   0.10102   0.106857  
         C         C         0.79758   0.61097   0.33197   -0.138555           
         H         H         0.75919   0.62609   0.39911   0.106424  
         C         C         0.81208   0.59115   0.24978   0.091261  
         H         H         0.80866   0.55618   0.10014   0.101817  
         H         H         0.80841   0.62622   0.39825   0.101956  
         C         C         0.40834   0.49265   0.24622   0.094342  
         C         C         0.38800   0.47880   0.33153   -0.139567           
         C         C         0.42750   0.47758   0.16188   -0.140398           
         C         C         0.38685   0.45114   0.33284   -0.049841           
         H         H         0.37336   0.49017   0.39955   0.101295  
         C         C         0.42646   0.44993   0.16381   -0.050479           
         H         H         0.44287   0.48790   0.09136   0.102347  
         C         C         0.40613   0.43608   0.24934   -0.240594           
         H         H         0.37112   0.44101   0.40193   0.105861  
         H         H         0.44130   0.43881   0.09522   0.106067  
         B         B         0.40553   0.40560   0.24801   0.582563  
         O         O         0.38644   0.38904   0.32533   -0.337671           
         O         O         0.42470   0.39039   0.16544   -0.337948           
         C         C         0.39417   0.36331   0.28885   0.166011  
         C         C         0.41727   0.36420   0.19138   0.165202  
         C         C         0.38194   0.33961   0.33822   -0.279110           
         C         C         0.43002   0.34166   0.13246   -0.275719           
         C         C         0.39481   0.31704   0.28032   0.164069  
         H         H         0.36432   0.33876   0.41609   0.165226  
         C         C         0.41777   0.31799   0.18157   0.164707  
         H         H         0.44757   0.34248   0.05401   0.164687  
         O         O         0.38767   0.29075   0.30812   -0.339371           
         O         O         0.42549   0.29236   0.14338   -0.336245           
         B         B         0.40677   0.27571   0.22284   0.583459  
         C         C         0.40696   0.24528   0.21968   -0.243014           
         C         C         0.38713   0.23058   0.30400   -0.049680           
         C         C         0.42669   0.23112   0.13402   -0.049152           
         C         C         0.38712   0.20294   0.30308   -0.139582           
         H         H         0.37189   0.24100   0.37344   0.106351  
         C         C         0.42658   0.20344   0.13259   -0.137403           
         H         H         0.44196   0.24197   0.06512   0.106000  
         C         C         0.40684   0.18875   0.21767   0.093365  
         H         H         0.37204   0.19188   0.37158   0.101006  
         H         H         0.44148   0.19279   0.06205   0.101919  
         C         C         0.31203   0.59104   0.23348   0.092972  
         C         C         0.29799   0.61094   0.14857   -0.142596           
         C         C         0.29712   0.57099   0.31444   -0.137479           
         C         C         0.27034   0.61071   0.14332   -0.050125           
         H         H         0.30920   0.62631   0.08362   0.103123  
         C         C         0.26947   0.57069   0.30883   -0.050244           
         H         H         0.30759   0.55596   0.38497   0.101373  
         C         C         0.25547   0.59050   0.22274   -0.240772           
         H         H         0.26006   0.62612   0.07440   0.106626  
         H         H         0.25846   0.55521   0.37487   0.106220  
         B         B         0.22503   0.59009   0.21783   0.581960  
         O         O         0.20922   0.60857   0.13333   -0.337259           
         O         O         0.20908   0.57121   0.30077   -0.338071           
         C         C         0.18320   0.60112   0.16757   0.166079  
         C         C         0.18311   0.57841   0.26852   0.165507  
         C         C         0.16011   0.61353   0.11440   -0.278271           
         C         C         0.15994   0.56607   0.32606   -0.277209           
         C         C         0.13695   0.60118   0.17180   0.166561  
         H         H         0.16011   0.63100   0.03521   0.164893  
         C         C         0.13684   0.57851   0.27313   0.163484  
         H         H         0.15992   0.54869   0.40600   0.164488  
         O         O         0.11101   0.60862   0.14110   -0.338335           
         O         O         0.11080   0.57132   0.30908   -0.337175           
         B         B         0.09502   0.59008   0.22684   0.582574  
         C         C         0.06456   0.59055   0.22900   -0.240420           
         C         C         0.05076   0.61075   0.14531   -0.051986           
         C         C         0.04948   0.57109   0.31405   -0.050395           
         C         C         0.02310   0.61137   0.14507   -0.136784           
         H         H         0.06193   0.62579   0.07647   0.105984  
         C         C         0.02183   0.57191   0.31541   -0.138599           
         H         H         0.05957   0.55544   0.38196   0.105691  
         C         C         0.00799   0.59194   0.23017   0.093206  
         H         H         0.01280   0.62657   0.07500   0.102443  
         H         H         0.01046   0.55717   0.38494   0.101448  
         C         C         0.41081   0.68878   0.23384   0.092866  
         C         C         0.43020   0.70374   0.31744   -0.140314           
         C         C         0.39122   0.70281   0.14665   -0.137227           
         C         C         0.42988   0.73141   0.31490   -0.049852           
         H         H         0.44524   0.69328   0.38748   0.101021  
         C         C         0.39073   0.73047   0.14523   -0.048673           
         H         H         0.37667   0.69160   0.07678   0.100767  
         C         C         0.41003   0.74542   0.22946   -0.241834           
         H         H         0.44489   0.74238   0.38301   0.105578  
         H         H         0.37547   0.74070   0.07522   0.105757  
         B         B         0.40959   0.77593   0.22894   0.583854  
         O         O         0.42862   0.79183   0.30855   -0.340912           
         O         O         0.39044   0.79184   0.15078   -0.336796           
         C         C         0.42104   0.81781   0.27894   0.166472  
         C         C         0.39788   0.81783   0.18400   0.164654  
         C         C         0.43369   0.84091   0.33231   -0.278144           
         C         C         0.38528   0.84106   0.13373   -0.275997           
         C         C         0.42103   0.86413   0.28248   0.163756  
         H         H         0.45146   0.84076   0.40739   0.165120  
         C         C         0.39786   0.86417   0.18763   0.166414  
         H         H         0.36760   0.84120   0.05789   0.165344  
         O         O         0.42842   0.89013   0.31632   -0.337526           
         O         O         0.39020   0.89016   0.15863   -0.337517           
         B         B         0.40916   0.90599   0.23921   0.581914  
         C         C         0.40849   0.93644   0.24140   -0.239503           
         C         C         0.42827   0.95161   0.31985   -0.049181           
         C         C         0.38768   0.95015   0.16359   -0.050591           
         C         C         0.42730   0.97925   0.31987   -0.138360           
         H         H         0.44434   0.94158   0.38374   0.105428  
         C         C         0.38679   0.97778   0.16278   -0.140617           
         H         H         0.37231   0.93893   0.10022   0.106564  
         C         C         0.40666   0.99298   0.24019   0.094288  
         H         H         0.44230   0.99069   0.38472   0.102243  
         H         H         0.37094   0.98801   0.09870   0.102850  
         C         C         0.84154   0.59136   0.24770   -0.066082           
         C         C         0.85492   0.61528   0.20982   0.190467  
         C         C         0.85502   0.56756   0.28145   0.190102  
         C         C         0.84242   0.63939   0.15441   -0.179683           
         N         N         0.88181   0.61980   0.23147   -0.381159           
         C         C         0.84269   0.54312   0.33695   -0.179721           
         N         N         0.88180   0.56343   0.25312   -0.381497           
         C         C         0.86158   0.65877   0.15145   -0.181450           
         H         H         0.82169   0.64131   0.12253   0.125792  
         C         C         0.88600   0.64665   0.20439   0.191575  
         C         C         0.86181   0.52398   0.33398   -0.180926           
         H         H         0.82204   0.54081   0.37233   0.124844  
         C         C         0.88605   0.53657   0.27689   0.190714  
         H         H         0.85931   0.67944   0.11751   0.124773  
         C         C         0.90994   0.66038   0.23496   -0.071540           
         H         H         0.85961   0.50319   0.36638   0.125381  
         C         C         0.90985   0.52327   0.23965   -0.068871           
         C         C         0.93408   0.64720   0.26455   0.191841  
         C         C         0.93377   0.53681   0.20350   0.191690  
         C         C         0.95861   0.65978   0.31309   -0.181680           
         N         N         0.93830   0.62034   0.24066   -0.380538           
         C         C         0.95807   0.52451   0.14905   -0.183535           
         N         N         0.93812   0.56372   0.22593   -0.380234           
         C         C         0.97783   0.64069   0.31071   -0.183844           
         H         H         0.96093   0.68052   0.34460   0.126037  
         C         C         0.96523   0.61621   0.26119   0.189349  
         C         C         0.97731   0.54382   0.14673   -0.185726           
         H         H         0.96022   0.50378   0.11794   0.127239  
         C         C         0.96495   0.56815   0.19932   0.191517  
         H         H         0.99869   0.64303   0.33889   0.125303  
         C         C         0.97851   0.59220   0.22991   -0.070136           
         H         H         0.99803   0.54168   0.11332   0.128514  
         Cu        Cu        0.91004   0.59182   0.23798   0.655528  
         C         C         0.40684   0.15928   0.21917   -0.068017           
         C         C         0.43070   0.14607   0.25538   0.190486  
         C         C         0.38281   0.14571   0.18881   0.188551  
         C         C         0.45499   0.15871   0.30809   -0.183602           
         N         N         0.43486   0.11912   0.23735   -0.382219           
         C         C         0.35838   0.15796   0.13702   -0.181591           
         N         N         0.37837   0.11895   0.21834   -0.378336           
         C         C         0.47398   0.13945   0.31595   -0.179475           
         H         H         0.45728   0.17963   0.33422   0.124599  
         C         C         0.46161   0.11492   0.26557   0.191741  
         C         C         0.33898   0.13882   0.14485   -0.183095           
         H         H         0.35626   0.17855   0.10040   0.126247  
         C         C         0.35140   0.11461   0.19976   0.189691  
         H         H         0.49455   0.14174   0.35142   0.126824  
         C         C         0.47502   0.09100   0.23442   -0.066256           
         H         H         0.31811   0.14095   0.11703   0.126007  
         C         C         0.33794   0.09072   0.23826   -0.070492           
         C         C         0.46143   0.06718   0.19908   0.191961  
         C         C         0.35133   0.06683   0.27219   0.189690  
         C         C         0.47362   0.04304   0.14241   -0.181662           
         N         N         0.43454   0.06284   0.22470   -0.382904           
         C         C         0.33886   0.04250   0.32849   -0.182069           
         N         N         0.37813   0.06257   0.24580   -0.380019           
         C         C         0.45428   0.02385   0.14217   -0.180652           
         H         H         0.49430   0.04098   0.10777   0.126416  
         C         C         0.43009   0.03605   0.19934   0.190656  
         C         C         0.35800   0.02333   0.32868   -0.183210           
         H         H         0.31813   0.04031   0.36221   0.125194  
         C         C         0.38235   0.03575   0.27213   0.189563  
         H         H         0.45627   0.00327   0.10714   0.124000  
         C         C         0.40623   0.02243   0.23699   -0.066236           
         H         H         0.35567   0.00264   0.36304   0.126195  
         Cu        Cu        0.40642   0.09091   0.23148   0.656446  
         C         C         0.90948   0.49380   0.23787   0.092964  
         C         C         0.88936   0.47981   0.15447   -0.138130           
         C         C         0.92903   0.47890   0.31961   -0.141359           
         C         C         0.88868   0.45215   0.15363   -0.049452           
         H         H         0.87456   0.49109   0.08731   0.101946  
         C         C         0.92840   0.45124   0.31849   -0.051258           
         H         H         0.94439   0.48934   0.38736   0.104707  
         C         C         0.90820   0.43725   0.23590   -0.242505           
         H         H         0.87312   0.44192   0.08582   0.106531  
         H         H         0.94350   0.44020   0.38491   0.106399  
         B         B         0.90785   0.40680   0.23673   0.583616  
         O         O         0.88985   0.39078   0.14978   -0.337328           
         O         O         0.92592   0.39108   0.32508   -0.338073           
         C         C         0.89699   0.36481   0.18542   0.165800  
         C         C         0.91890   0.36501   0.29099   0.163947  
         C         C         0.88520   0.34155   0.12785   -0.277790           
         C         C         0.93099   0.34198   0.34904   -0.277288           
         C         C         0.89738   0.31851   0.18514   0.163293  
         H         H         0.86833   0.34138   0.04522   0.163897  
         C         C         0.91934   0.31871   0.29040   0.165600  
         H         H         0.94765   0.34216   0.43324   0.163156  
         O         O         0.89041   0.29243   0.15056   -0.337664           
         O         O         0.92674   0.29276   0.32483   -0.337471           
         B         B         0.90868   0.27676   0.23811   0.582792  
         C         C         0.90847   0.24633   0.23906   -0.241850           
         C         C         0.88825   0.23222   0.15736   -0.051059           
         C         C         0.92805   0.23159   0.32184   -0.050232           
         C         C         0.88769   0.20458   0.15772   -0.139908           
         H         H         0.87305   0.24316   0.09107   0.106934  
         C         C         0.92743   0.20392   0.32234   -0.135704           
         H         H         0.94354   0.24197   0.38932   0.105992  
         C         C         0.90729   0.18983   0.23995   0.092235  
         H         H         0.87229   0.19396   0.09144   0.102332  
         H         H         0.94229   0.19278   0.38989   0.101139  
         C         C         0.90926   0.68983   0.23544   0.094544  
         C         C         0.88891   0.70333   0.32005   -0.137026           
         C         C         0.92845   0.70525   0.15037   -0.141791           
         C         C         0.88756   0.73094   0.31800   -0.049327           
         H         H         0.87445   0.69174   0.39059   0.102144  
         C         C         0.92725   0.73288   0.14954   -0.047985           
         H         H         0.94394   0.69521   0.08123   0.102773  
         C         C         0.90673   0.74633   0.23284   -0.243297           
         H         H         0.87179   0.74079   0.38624   0.106500  
         H         H         0.94207   0.74429   0.08023   0.105585  
         B         B         0.90579   0.77678   0.23053   0.583822  
         O         O         0.88644   0.79259   0.30777   -0.337822           
         O         O         0.92487   0.79268   0.14923   -0.338922           
         C         C         0.89403   0.81865   0.27328   0.163968  
         C         C         0.91734   0.81865   0.17763   0.165584  
         C         C         0.88161   0.84191   0.32406   -0.275741           
         C         C         0.93022   0.84174   0.12324   -0.277089           
         C         C         0.89451   0.86501   0.26967   0.164471  
         H         H         0.86395   0.84208   0.40157   0.165244  
         C         C         0.91779   0.86499   0.17379   0.166050  
         H         H         0.94810   0.84155   0.04774   0.164961  
         O         O         0.88733   0.89102   0.30077   -0.338635           
         O         O         0.92574   0.89100   0.14209   -0.338925           
         B         B         0.90677   0.90687   0.22211   0.585047  
         C         C         0.90690   0.93733   0.22597   -0.242041           
         C         C         0.88700   0.95115   0.31249   -0.051453           
         C         C         0.92677   0.95238   0.14461   -0.048586           
         C         C         0.88703   0.97879   0.31780   -0.139842           
         H         H         0.87160   0.94003   0.37860   0.106834  
         C         C         0.92663   0.98003   0.14864   -0.139699           
         H         H         0.94208   0.94226   0.07397   0.105620  
         C         C         0.90677   0.99387   0.23518   0.094449  
         H         H         0.87193   0.98911   0.38857   0.102971  
         H         H         0.94158   0.99139   0.08066   0.101074  
         C         C         0.90687   0.16037   0.23917   -0.068376           
         C         C         0.88293   0.14688   0.27553   0.189739  
         C         C         0.93062   0.14705   0.20145   0.189679  
         C         C         0.85864   0.15921   0.32998   -0.184532           
         N         N         0.87852   0.11999   0.25262   -0.378548           
         C         C         0.95486   0.15961   0.14433   -0.183262           
         N         N         0.93485   0.12019   0.22485   -0.380951           
         C         C         0.83934   0.13994   0.33167   -0.181309           
         H         H         0.85652   0.17994   0.36150   0.128284  
         C         C         0.85168   0.11559   0.27933   0.186816  
         C         C         0.97398   0.14047   0.14078   -0.181010           
         H         H         0.95700   0.18042   0.11255   0.127655  
         C         C         0.96162   0.11607   0.19675   0.192266  
         H         H         0.81857   0.14205   0.36424   0.126205  
         C         C         0.83818   0.09152   0.24944   -0.069015           
         H         H         0.99459   0.14275   0.10439   0.125416  
         C         C         0.97509   0.09230   0.23148   -0.066410           
         C         C         0.85146   0.06761   0.21537   0.189161  
         C         C         0.96172   0.06827   0.26736   0.188849  
         C         C         0.83883   0.04323   0.16426   -0.182270           
         N         N         0.87840   0.06347   0.23448   -0.379474           
         C         C         0.97420   0.04398   0.32030   -0.179254           
         N         N         0.93486   0.06379   0.24464   -0.379898           
         C         C         0.85807   0.02420   0.15908   -0.181472           
         H         H         0.81795   0.04092   0.13676   0.125200  
         C         C         0.88260   0.03668   0.20856   0.190362  
         C         C         0.95506   0.02458   0.32037   -0.180684           
         H         H         0.99492   0.04193   0.35190   0.124790  
         C         C         0.93064   0.03688   0.26898   0.190577  
         H         H         0.85576   0.00355   0.12546   0.126243  
         C         C         0.90664   0.02333   0.23779   -0.068898           
         H         H         0.95736   0.00380   0.35135   0.124917  
         C         C         0.50450   0.09078   0.23650   0.092201  
         C         C         0.51840   0.07039   0.31792   -0.138698           
         C         C         0.51957   0.11074   0.15599   -0.139497           
         C         C         0.54607   0.07000   0.31928   -0.050308           
         H         H         0.50705   0.05512   0.38318   0.101362  
         C         C         0.54723   0.11042   0.15789   -0.051049           
         H         H         0.50922   0.12620   0.08855   0.102293  
         C         C         0.56112   0.09007   0.23955   -0.239583           
         H         H         0.55621   0.05415   0.38514   0.106479  
         H         H         0.55836   0.12588   0.09253   0.106342  
         B         B         0.59162   0.08993   0.24108   0.582858  
         O         O         0.60708   0.07115   0.32532   -0.337851           
         O         O         0.60796   0.10857   0.15843   -0.338573           
         C         C         0.63327   0.07822   0.29254   0.165012  
         C         C         0.63378   0.10105   0.19273   0.166492  
         C         C         0.65617   0.06550   0.34665   -0.276086           
         C         C         0.65720   0.11346   0.13967   -0.275871           
         C         C         0.67958   0.07783   0.29285   0.164224  
         H         H         0.65587   0.04794   0.42508   0.164080  
         C         C         0.68008   0.10091   0.19515   0.163839  
         H         H         0.65757   0.13105   0.06142   0.164484  
         O         O         0.70542   0.07022   0.32624   -0.338411           
         O         O         0.70624   0.10845   0.16601   -0.337538           
         B         B         0.72169   0.08943   0.24832   0.583794  
         C         C         0.75214   0.08999   0.25126   -0.242201           
         C         C         0.76674   0.07075   0.33816   -0.050266           
         C         C         0.76644   0.11003   0.16607   -0.049766           
         C         C         0.79440   0.07147   0.33926   -0.137181           
         H         H         0.75626   0.05536   0.40817   0.105437  
         C         C         0.79410   0.11057   0.16574   -0.138312           
         H         H         0.75570   0.12501   0.09637   0.105806  
         C         C         0.80870   0.09125   0.25200   0.093277  
         H         H         0.80539   0.05692   0.41045   0.101357  
         H         H         0.80482   0.12567   0.09514   0.101920  
         C         C         0.30844   0.09065   0.24318   0.093988  
         C         C         0.29361   0.07089   0.16213   -0.137507           
         C         C         0.29434   0.11032   0.32917   -0.137503           
         C         C         0.26594   0.07067   0.16803   -0.050314           
         H         H         0.30416   0.05601   0.09113   0.101786  
         C         C         0.26668   0.11024   0.33423   -0.052498           
         H         H         0.30545   0.12546   0.39466   0.100906  
         C         C         0.25185   0.09037   0.25415   -0.240087           
         H         H         0.25506   0.05532   0.10225   0.105784  
         H         H         0.25632   0.12551   0.40333   0.106868  
         B         B         0.22139   0.09046   0.25983   0.580887  
         O         O         0.20520   0.07139   0.18314   -0.336782           
         O         O         0.20582   0.10958   0.34091   -0.337766           
         C         C         0.17935   0.07901   0.21625   0.164487  
         C         C         0.17966   0.10220   0.31093   0.163029  
         C         C         0.15607   0.06653   0.16487   -0.276369           
         C         C         0.15663   0.11516   0.36163   -0.275207           
         C         C         0.13310   0.07949   0.21581   0.166061  
         H         H         0.15584   0.04877   0.08978   0.164642  
         C         C         0.13331   0.10285   0.30871   0.165347  
         H         H         0.15686   0.13312   0.43480   0.164823  
         O         O         0.10709   0.07246   0.18184   -0.337894           
         O         O         0.10734   0.11108   0.33440   -0.338959           
         B         B         0.09137   0.09216   0.25462   0.582344  
         C         C         0.06096   0.09262   0.24617   -0.240770           
         C         C         0.04698   0.07275   0.16057   -0.050749           
         C         C         0.04618   0.11275   0.32321   -0.050469           
         C         C         0.01935   0.07284   0.15365   -0.138681           
         H         H         0.05797   0.05736   0.09627   0.106510  
         C         C         0.01854   0.11273   0.31698   -0.140103           
         H         H         0.05653   0.12813   0.39192   0.106772  
         C         C         0.00453   0.09266   0.23335   0.092768  
         H         H         0.00883   0.05782   0.08354   0.102221  
         H         H         0.00731   0.12792   0.38072   0.100670  
         Cu        Cu        0.90660   0.09185   0.23899   0.655004  
         C         C         0.47471   0.63930   0.64546   -0.178612           
         C         C         0.45544   0.65830   0.64500   -0.180847           
         C         C         0.46239   0.61487   0.70152   0.188977  
         C         C         0.43112   0.64570   0.70037   0.190886  
         N         N         0.43551   0.61891   0.72680   -0.381503           
         C         C         0.46252   0.56710   0.77379   0.190326  
         C         C         0.47500   0.54298   0.82948   -0.182184           
         C         C         0.45590   0.52355   0.83145   -0.179488           
         C         C         0.43154   0.53556   0.77671   0.189900  
         N         N         0.43570   0.56245   0.75022   -0.379774           
         C         C         0.38380   0.53478   0.70849   0.189324  
         C         C         0.35957   0.52213   0.65506   -0.181632           
         C         C         0.34036   0.54121   0.65179   -0.181953           
         C         C         0.35262   0.56569   0.70405   0.189545  
         N         N         0.37940   0.56164   0.73064   -0.380884           
         C         C         0.35233   0.61360   0.76942   0.189576  
         C         C         0.33968   0.63773   0.82255   -0.181976           
         C         C         0.35883   0.65713   0.82426   -0.182655           
         C         C         0.38330   0.64508   0.77053   0.191648  
         N         N         0.37920   0.61820   0.74635   -0.379503           
         Cu        Cu        0.40745   0.59027   0.73799   0.655725  
         C         C         0.33908   0.58956   0.73506   -0.068878           
         C         C         0.40781   0.52169   0.74280   -0.067494           
         C         C         0.47589   0.59111   0.73672   -0.066521           
         C         C         0.40709   0.65885   0.73397   -0.069125           
         H         H         0.31971   0.53884   0.61816   0.126005  
         H         H         0.35740   0.50133   0.62499   0.125254  
         H         H         0.45816   0.50289   0.86564   0.124265  
         H         H         0.49571   0.54103   0.86167   0.125358  
         H         H         0.49541   0.64177   0.61182   0.124431  
         H         H         0.45760   0.67903   0.61139   0.123687  
         H         H         0.35647   0.67773   0.85805   0.126886  
         H         H         0.31885   0.63969   0.85320   0.125579  
         C         C         0.50536   0.59126   0.73311   0.092917  
         C         C         0.51948   0.57116   0.65111   -0.138262           
         C         C         0.52015   0.61147   0.81031   -0.139140           
         C         C         0.54714   0.57120   0.64676   -0.050889           
         H         H         0.50833   0.55586   0.58714   0.101305  
         C         C         0.54781   0.61170   0.80410   -0.050977           
         H         H         0.50957   0.62666   0.87842   0.103186  
         C         C         0.56193   0.59154   0.72252   -0.239170           
         H         H         0.55752   0.55561   0.58049   0.106654  
         H         H         0.55872   0.62737   0.86669   0.106704  
         B         B         0.59241   0.59161   0.71788   0.583424  
         O         O         0.60812   0.57140   0.64959   -0.339253           
         O         O         0.60846   0.61177   0.78446   -0.339561           
         C         C         0.63417   0.57910   0.67747   0.168405  
         C         C         0.63437   0.60351   0.75953   0.165642  
         C         C         0.65721   0.56552   0.63395   -0.275482           
         C         C         0.65763   0.61633   0.80820   -0.276554           
         C         C         0.68048   0.57840   0.68206   0.164257  
         H         H         0.65703   0.54685   0.56772   0.165768  
         C         C         0.68065   0.60262   0.76625   0.166934  
         H         H         0.65781   0.63496   0.87483   0.166196  
         O         O         0.70641   0.57004   0.65866   -0.339649           
         O         O         0.70663   0.60984   0.79994   -0.338327           
         B         B         0.72241   0.58960   0.73260   0.584336  
         C         C         0.75287   0.58916   0.73888   -0.241016           
         C         C         0.76765   0.56948   0.65722   -0.050040           
         C         C         0.76704   0.60879   0.82545   -0.050136           
         C         C         0.79532   0.56978   0.65947   -0.138521           
         H         H         0.75732   0.55424   0.58735   0.105833  
         C         C         0.79470   0.60882   0.82972   -0.136498           
         H         H         0.75616   0.62389   0.89289   0.106037  
         C         C         0.80952   0.58951   0.74506   0.091471  
         H         H         0.80641   0.55502   0.59092   0.100426  
         H         H         0.80523   0.62360   0.90170   0.101487  
         C         C         0.40843   0.49222   0.74047   0.094009  
         C         C         0.38874   0.47674   0.82061   -0.140186           
         C         C         0.42893   0.47873   0.65729   -0.139633           
         C         C         0.38947   0.44908   0.81691   -0.049047           
         H         H         0.37317   0.48673   0.88926   0.104048  
         C         C         0.42981   0.45108   0.65477   -0.049349           
         H         H         0.44395   0.49037   0.59187   0.101830  
         C         C         0.41005   0.43562   0.73445   -0.241536           
         H         H         0.37414   0.43765   0.88152   0.106389  
         H         H         0.44570   0.44128   0.58738   0.105568  
         B         B         0.41059   0.40515   0.73083   0.584159  
         O         O         0.39143   0.38869   0.80738   -0.336757           
         O         O         0.42992   0.38987   0.64961   -0.340027           
         C         C         0.39881   0.36295   0.76969   0.165198  
         C         C         0.42227   0.36360   0.67555   0.163912  
         C         C         0.38583   0.33946   0.81530   -0.274865           
         C         C         0.43501   0.34074   0.62032   -0.278038           
         C         C         0.39841   0.31665   0.75897   0.166764  
         H         H         0.36782   0.33895   0.88975   0.165537  
         C         C         0.42210   0.31721   0.66697   0.164943  
         H         H         0.45306   0.34123   0.54625   0.165618  
         O         O         0.39040   0.29054   0.78375   -0.338125           
         O         O         0.42969   0.29132   0.63305   -0.339886           
         B         B         0.40997   0.27505   0.70651   0.583870  
         C         C         0.41000   0.24453   0.70656   -0.238858           
         C         C         0.38998   0.22986   0.78948   -0.050276           
         C         C         0.43029   0.23022   0.62700   -0.050793           
         C         C         0.39034   0.20219   0.79352   -0.136152           
         H         H         0.37432   0.24032   0.85500   0.106215  
         C         C         0.43054   0.20255   0.63023   -0.140160           
         H         H         0.44581   0.24096   0.55967   0.105912  
         C         C         0.41059   0.18787   0.71361   0.092406  
         H         H         0.37523   0.19124   0.86279   0.102321  
         H         H         0.44603   0.19183   0.56545   0.101594  
         C         C         0.30964   0.58954   0.73182   0.093568  
         C         C         0.29576   0.60952   0.64659   -0.138681           
         C         C         0.29467   0.56975   0.81444   -0.138664           
         C         C         0.26811   0.60980   0.64475   -0.049634           
         H         H         0.30708   0.62452   0.57881   0.102105  
         C         C         0.26702   0.56978   0.81054   -0.050191           
         H         H         0.30508   0.55460   0.88430   0.102728  
         C         C         0.25316   0.58983   0.72594   -0.241845           
         H         H         0.25790   0.62534   0.57655   0.106862  
         H         H         0.25593   0.55441   0.87707   0.106161  
         B         B         0.22273   0.58990   0.72234   0.584560  
         O         O         0.20736   0.60988   0.64893   -0.338379           
         O         O         0.20639   0.57007   0.79296   -0.339198           
         C         C         0.18116   0.60231   0.67652   0.164288  
         C         C         0.18060   0.57823   0.76439   0.164704  
         C         C         0.15827   0.61567   0.62841   -0.275153           
         C         C         0.15717   0.56554   0.81425   -0.276313           
         C         C         0.13482   0.60292   0.67774   0.165063  
         H         H         0.15870   0.63410   0.55809   0.165510  
         C         C         0.13431   0.57896   0.76696   0.165941  
         H         H         0.15677   0.54721   0.88559   0.165595  
         O         O         0.10896   0.61108   0.64981   -0.337877           
         O         O         0.10818   0.57161   0.79871   -0.338451           
         B         B         0.09272   0.59158   0.72495   0.583464  
         C         C         0.06227   0.59201   0.72604   -0.241291           
         C         C         0.04809   0.61224   0.64502   -0.048984           
         C         C         0.04758   0.57205   0.80910   -0.049760           
         C         C         0.02041   0.61237   0.64582   -0.139964           
         H         H         0.05893   0.62767   0.57753   0.105965  
         C         C         0.01994   0.57234   0.81119   -0.139082           
         H         H         0.05805   0.55648   0.87537   0.106247  
         C         C         0.00572   0.59239   0.72886   0.093468  
         H         H         0.00973   0.62764   0.57857   0.102406  
         H         H         0.00887   0.55726   0.87971   0.101476  
         C         C         0.40663   0.68829   0.72799   0.093407  
         C         C         0.42660   0.70355   0.80393   -0.136959           
         C         C         0.38618   0.70193   0.64591   -0.141248           
         C         C         0.42633   0.73118   0.79590   -0.050075           
         H         H         0.44194   0.69342   0.87343   0.104076  
         C         C         0.38572   0.72957   0.63956   -0.050645           
         H         H         0.37082   0.69041   0.58515   0.102854  
         C         C         0.40585   0.74479   0.71408   -0.240273           
         H         H         0.44184   0.74251   0.85718   0.106591  
         H         H         0.36979   0.73956   0.57403   0.107188  
         B         B         0.40553   0.77522   0.71170   0.580615  
         O         O         0.42461   0.79093   0.79176   -0.337193           
         O         O         0.38641   0.79120   0.63397   -0.337573           
         C         C         0.41701   0.81692   0.76405   0.166982  
         C         C         0.39387   0.81718   0.66886   0.163797  
         C         C         0.42955   0.83983   0.82042   -0.276961           
         C         C         0.38130   0.84054   0.62018   -0.277003           
         C         C         0.41701   0.86313   0.77151   0.165924  
         H         H         0.44715   0.83955   0.89697   0.164441  
         C         C         0.39390   0.86353   0.67609   0.163868  
         H         H         0.36356   0.84079   0.54497   0.164883  
         O         O         0.42458   0.88890   0.80787   -0.336904           
         O         O         0.38641   0.88971   0.64976   -0.338180           
         B         B         0.40566   0.90514   0.73087   0.583469  
         C         C         0.40660   0.93556   0.73370   -0.242597           
         C         C         0.42724   0.94894   0.81605   -0.049791           
         C         C         0.38744   0.95102   0.65221   -0.047819           
         C         C         0.42862   0.97657   0.81783   -0.138912           
         H         H         0.44212   0.93747   0.88166   0.105361  
         C         C         0.38894   0.97863   0.65306   -0.137459           
         H         H         0.37159   0.94122   0.58461   0.105873  
         C         C         0.40946   0.99203   0.73648   0.092787  
         H         H         0.44432   0.98655   0.88519   0.101953  
         H         H         0.37448   0.99032   0.58584   0.101287  
         C         C         0.83904   0.59004   0.74454   -0.068539           
         C         C         0.85222   0.61433   0.71202   0.189747  
         C         C         0.85275   0.56620   0.77456   0.188558  
         C         C         0.83947   0.63863   0.66165   -0.183515           
         N         N         0.87914   0.61895   0.73177   -0.380557           
         C         C         0.84058   0.54148   0.82669   -0.183028           
         N         N         0.87966   0.56242   0.74848   -0.379013           
         C         C         0.85859   0.65805   0.65720   -0.179528           
         H         H         0.81857   0.64065   0.63441   0.125760  
         C         C         0.88320   0.64589   0.70614   0.189731  
         C         C         0.85999   0.52261   0.82476   -0.182516           
         H         H         0.81987   0.53881   0.86002   0.128696  
         C         C         0.88424   0.53557   0.77116   0.189534  
         H         H         0.85616   0.67877   0.62469   0.126264  
         C         C         0.90719   0.65962   0.73507   -0.067553           
         H         H         0.85797   0.50174   0.85543   0.124932  
         C         C         0.90836   0.52263   0.73692   -0.068590           
         C         C         0.93129   0.64650   0.76632   0.190096  
         C         C         0.93212   0.53649   0.70084   0.190403  
         C         C         0.95559   0.65925   0.81763   -0.179843           
         N         N         0.93573   0.61974   0.74189   -0.381109           
         C         C         0.95654   0.52448   0.64584   -0.182132           
         N         N         0.93616   0.56341   0.72368   -0.378356           
         C         C         0.97494   0.64033   0.81662   -0.180301           
         H         H         0.95760   0.67999   0.84963   0.124939  
         C         C         0.96267   0.61587   0.76417   0.189976  
         C         C         0.97554   0.54400   0.64299   -0.180249           
         H         H         0.95896   0.50377   0.61473   0.124244  
         C         C         0.96296   0.56813   0.69672   0.189627  
         H         H         0.99568   0.64278   0.84770   0.124765  
         C         C         0.97626   0.59219   0.72956   -0.067397           
         H         H         0.99626   0.54211   0.60908   0.125330  
         Cu        Cu        0.90763   0.59113   0.73669   0.655341  
         C         C         0.41083   0.15839   0.71792   -0.067076           
         C         C         0.43469   0.14524   0.75535   0.189586  
         C         C         0.38697   0.14460   0.68649   0.189812  
         C         C         0.45888   0.15794   0.80883   -0.181990           
         N         N         0.43899   0.11830   0.73649   -0.380058           
         C         C         0.36264   0.15660   0.63111   -0.179654           
         N         N         0.38262   0.11786   0.71712   -0.383132           
         C         C         0.47802   0.13881   0.81460   -0.181747           
         H         H         0.46103   0.17880   0.83756   0.125880  
         C         C         0.46574   0.11420   0.76426   0.190235  
         C         C         0.34338   0.13733   0.63664   -0.180348           
         H         H         0.36048   0.17714   0.59441   0.124008  
         C         C         0.35572   0.11335   0.69555   0.192407  
         H         H         0.49863   0.14120   0.84905   0.124942  
         C         C         0.47922   0.09018   0.73590   -0.072287           
         H         H         0.32264   0.13928   0.60500   0.124557  
         C         C         0.34224   0.08964   0.73782   -0.066624           
         C         C         0.46587   0.06601   0.70558   0.190631  
         C         C         0.35571   0.06603   0.77681   0.190367  
         C         C         0.47834   0.04155   0.65597   -0.182794           
         N         N         0.43892   0.06171   0.72782   -0.380008           
         C         C         0.34343   0.04186   0.83736   -0.180952           
         N         N         0.38247   0.06176   0.74826   -0.382134           
         C         C         0.45896   0.02236   0.65480   -0.182930           
         H         H         0.49920   0.03928   0.62679   0.125891  
         C         C         0.43452   0.03481   0.70503   0.190170  
         C         C         0.36249   0.02266   0.83479   -0.180320           
         H         H         0.32290   0.03976   0.87589   0.126713  
         C         C         0.38667   0.03499   0.77489   0.190997  
         H         H         0.46112   0.00161   0.62377   0.126157  
         C         C         0.41039   0.02147   0.73869   -0.068653           
         H         H         0.36035   0.00197   0.86950   0.124273  
         Cu        Cu        0.41082   0.08991   0.73156   0.656715  
         C         C         0.90898   0.49318   0.74016   0.093782  
         C         C         0.88934   0.47797   0.66096   -0.139649           
         C         C         0.92932   0.47948   0.82291   -0.138976           
         C         C         0.88988   0.45034   0.66540   -0.051412           
         H         H         0.87392   0.48820   0.59294   0.102518  
         C         C         0.93013   0.45183   0.82505   -0.049414           
         H         H         0.94422   0.49094   0.88838   0.101412  
         C         C         0.91035   0.43665   0.74661   -0.238868           
         H         H         0.87457   0.43910   0.60171   0.106520  
         H         H         0.94594   0.44183   0.89149   0.105413  
         B         B         0.91065   0.40621   0.74676   0.584346  
         O         O         0.89007   0.39040   0.68272   -0.339181           
         O         O         0.93115   0.39029   0.80918   -0.339182           
         C         C         0.89801   0.36442   0.70693   0.167139  
         C         C         0.92289   0.36433   0.78360   0.165038  
         C         C         0.88432   0.34132   0.66474   -0.276727           
         C         C         0.93629   0.34114   0.82573   -0.277106           
         C         C         0.89766   0.31813   0.70725   0.166839  
         H         H         0.86518   0.34129   0.60387   0.166761  
         C         C         0.92249   0.31803   0.78440   0.167036  
         H         H         0.95547   0.34117   0.88615   0.166479  
         O         O         0.88929   0.29221   0.68215   -0.338633           
         O         O         0.93029   0.29201   0.80952   -0.340807           
         B         B         0.90973   0.27623   0.74498   0.584260  
         C         C         0.90991   0.24578   0.74195   -0.239841           
         C         C         0.88981   0.23122   0.66223   -0.050372           
         C         C         0.93038   0.23144   0.81878   -0.050635           
         C         C         0.89020   0.20356   0.65929   -0.135735           
         H         H         0.87401   0.24175   0.59891   0.106371  
         C         C         0.93057   0.20380   0.81760   -0.140365           
         H         H         0.94598   0.24216   0.88316   0.105861  
         C         C         0.91051   0.18919   0.73785   0.092517  
         H         H         0.87497   0.19265   0.59311   0.101759  
         H         H         0.94602   0.19304   0.88200   0.101743  
         C         C         0.90721   0.68910   0.73293   0.092655  
         C         C         0.88760   0.70355   0.81770   -0.139810           
         C         C         0.92691   0.70357   0.64588   -0.139485           
         C         C         0.88753   0.73121   0.81449   -0.049235           
         H         H         0.87268   0.69269   0.88889   0.102132  
         C         C         0.92698   0.73124   0.64358   -0.048383           
         H         H         0.94174   0.69272   0.57593   0.101539  
         C         C         0.90720   0.74568   0.72716   -0.242401           
         H         H         0.87232   0.74182   0.88323   0.106717  
         H         H         0.94216   0.74186   0.57257   0.105905  
         B         B         0.90691   0.77617   0.72292   0.582119  
         O         O         0.88756   0.79188   0.80040   -0.337837           
         O         O         0.92593   0.79224   0.64156   -0.338367           
         C         C         0.89498   0.81794   0.76735   0.166190  
         C         C         0.91827   0.81815   0.67161   0.165358  
         C         C         0.88229   0.84095   0.81965   -0.275674           
         C         C         0.93093   0.84143   0.61880   -0.279162           
         C         C         0.89499   0.86424   0.76730   0.164364  
         H         H         0.86451   0.84074   0.89609   0.165031  
         C         C         0.91829   0.86442   0.67155   0.166094  
         H         H         0.94877   0.84165   0.54285   0.165929  
         O         O         0.88765   0.89018   0.80006   -0.337433           
         O         O         0.92605   0.89044   0.64133   -0.338578           
         B         B         0.90716   0.90619   0.72262   0.582645  
         C         C         0.90801   0.93664   0.72707   -0.239241           
         C         C         0.88844   0.95112   0.81202   -0.051919           
         C         C         0.92856   0.95104   0.64734   -0.050838           
         C         C         0.88932   0.97876   0.81689   -0.134889           
         H         H         0.87269   0.94049   0.87808   0.106678  
         C         C         0.92927   0.97869   0.65061   -0.140419           
         H         H         0.94383   0.94039   0.57937   0.106079  
         C         C         0.90964   0.99319   0.73502   0.092688  
         H         H         0.87453   0.98957   0.88744   0.103069  
         H         H         0.94479   0.98953   0.58448   0.101906  
         C         C         0.91069   0.15972   0.73769   -0.068182           
         C         C         0.88684   0.14612   0.77535   0.190740  
         C         C         0.93460   0.14644   0.70220   0.189515  
         C         C         0.86276   0.15834   0.83409   -0.181376           
         N         N         0.88241   0.11927   0.75234   -0.382372           
         C         C         0.95905   0.15907   0.64929   -0.180887           
         N         N         0.93884   0.11953   0.72556   -0.379988           
         C         C         0.84355   0.13903   0.83919   -0.177275           
         H         H         0.86072   0.17904   0.86618   0.124104  
         C         C         0.85566   0.11483   0.78282   0.190414  
         C         C         0.97826   0.13999   0.64921   -0.184518           
         H         H         0.96138   0.17988   0.61775   0.125950  
         C         C         0.96572   0.11541   0.70077   0.190356  
         H         H         0.82301   0.14106   0.87695   0.124449  
         C         C         0.84202   0.09097   0.75004   -0.067043           
         H         H         0.99908   0.14244   0.61832   0.126379  
         C         C         0.97906   0.09138   0.73163   -0.070488           
         C         C         0.85528   0.06722   0.71235   0.190982  
         C         C         0.96554   0.06729   0.76478   0.190212  
         C         C         0.84270   0.04311   0.65659   -0.178997           
         N         N         0.88216   0.06293   0.73366   -0.382737           
         C         C         0.97791   0.04287   0.81674   -0.187131           
         N         N         0.93863   0.06297   0.74310   -0.378662           
         C         C         0.86182   0.02397   0.65266   -0.181478           
         H         H         0.82195   0.04102   0.62506   0.125019  
         C         C         0.88627   0.03620   0.70596   0.190511  
         C         C         0.95861   0.02362   0.81859   -0.182009           
         H         H         0.99869   0.04069   0.84685   0.129206  
         C         C         0.93424   0.03605   0.76777   0.189008  
         H         H         0.85954   0.00341   0.61724   0.124638  
         C         C         0.91014   0.02265   0.73668   -0.066832           
         H         H         0.96077   0.00285   0.85080   0.126432  
         C         C         0.50869   0.09050   0.73613   0.094206  
         C         C         0.52320   0.07089   0.82059   -0.138687           
         C         C         0.52314   0.11049   0.65136   -0.137905           
         C         C         0.55086   0.07112   0.81932   -0.050649           
         H         H         0.51242   0.05570   0.88995   0.101711  
         C         C         0.55081   0.11108   0.65317   -0.050410           
         H         H         0.51229   0.12529   0.58129   0.102283  
         C         C         0.56527   0.09131   0.73638   -0.240292           
         H         H         0.56153   0.05577   0.88634   0.106064  
         H         H         0.56143   0.12674   0.58631   0.105743  
         B         B         0.59571   0.09137   0.73687   0.584490  
         O         O         0.61107   0.07133   0.80980   -0.338841           
         O         O         0.61211   0.11109   0.66514   -0.338738           
         C         C         0.63724   0.07886   0.78259   0.165319  
         C         C         0.63788   0.10285   0.69374   0.165930  
         C         C         0.65999   0.06559   0.83335   -0.276994           
         C         C         0.66139   0.11551   0.64514   -0.279356           
         C         C         0.68350   0.07829   0.78517   0.166245  
         H         H         0.65942   0.04738   0.90580   0.165905  
         C         C         0.68416   0.10216   0.69505   0.166042  
         H         H         0.66197   0.13384   0.57392   0.166437  
         O         O         0.70926   0.07029   0.81696   -0.337461           
         O         O         0.71034   0.10969   0.66717   -0.338473           
         B         B         0.72563   0.08997   0.74450   0.581576  
         C         C         0.75606   0.09025   0.74878   -0.240293           
         C         C         0.77034   0.07018   0.83036   -0.049141           
         C         C         0.77061   0.11076   0.67004   -0.049549           
         C         C         0.79801   0.07056   0.83243   -0.141353           
         H         H         0.75957   0.05440   0.89523   0.106616  
         C         C         0.79826   0.11106   0.67143   -0.140477           
         H         H         0.76003   0.12628   0.60392   0.106561  
         C         C         0.81257   0.09090   0.75206   0.095398  
         H         H         0.80880   0.05533   0.89913   0.102338  
         H         H         0.80924   0.12658   0.60609   0.101998  
         C         C         0.31276   0.08948   0.74202   0.094123  
         C         C         0.29799   0.06891   0.66841   -0.140906           
         C         C         0.29861   0.10981   0.82145   -0.140411           
         C         C         0.27033   0.06855   0.67564   -0.051343           
         H         H         0.30858   0.05342   0.60312   0.104074  
         C         C         0.27095   0.10952   0.82828   -0.048797           
         H         H         0.30978   0.12549   0.88164   0.101500  
         C         C         0.25618   0.08880   0.75618   -0.239434           
         H         H         0.25941   0.05258   0.61585   0.106409  
         H         H         0.26059   0.12521   0.89372   0.106273  
         B         B         0.22569   0.08830   0.76395   0.582825  
         O         O         0.20975   0.06785   0.69925   -0.339083           
         O         O         0.20989   0.10835   0.83335   -0.339321           
         C         C         0.18377   0.07587   0.72550   0.166183  
         C         C         0.18383   0.10029   0.80746   0.167801  
         C         C         0.16059   0.06280   0.67741   -0.275440           
         C         C         0.16063   0.11361   0.85129   -0.276429           
         C         C         0.13742   0.07630   0.71900   0.163759  
         H         H         0.16056   0.04411   0.61167   0.165059  
         C         C         0.13743   0.10051   0.80329   0.164948  
         H         H         0.16063   0.13237   0.91658   0.165863  
         O         O         0.11144   0.06890   0.68432   -0.338705           
         O         O         0.11141   0.10871   0.82561   -0.338519           
         B         B         0.09557   0.08917   0.75071   0.584150  
         C         C         0.06513   0.09005   0.74208   -0.242540           
         C         C         0.05062   0.07067   0.65555   -0.051020           
         C         C         0.05076   0.11030   0.82114   -0.048785           
         C         C         0.02299   0.07148   0.64876   -0.136812           
         H         H         0.06119   0.05507   0.59050   0.106211  
         C         C         0.02311   0.11077   0.81714   -0.137892           
         H         H         0.06140   0.12538   0.89063   0.105905  
         C         C         0.00856   0.09131   0.73152   0.091868  
         H         H         0.01218   0.05682   0.57729   0.101944  
         H         H         0.01232   0.12586   0.88488   0.102336  
         Cu        Cu        0.91054   0.09121   0.73827   0.656383 

