
##########################################################################
#               Crystallographic Information Format file
#               Produced by PyCifRW module
#
#  This is a CIF file.  CIF has been adopted by the International
#  Union of Crystallography as the standard for data archiving and
#  transmission.
#
#  For information on this file format, follow the CIF links at
#  http://www.iucr.org
##########################################################################

data_image0

_cell_length_a                          46.3376
_cell_length_b                          46.3558
_cell_length_c                          7.85334
_cell_angle_alpha                       120.739
_cell_angle_beta                        90.3702
_cell_angle_gamma                       90.2973
_symmetry_space_group_name_H-M          'P 1'
_space_group_name_Hall                  'P 1'
loop_
  _atom_site_type_symbol
  _atom_site_label
  _atom_site_fract_x
  _atom_site_fract_y
  _atom_site_fract_z
  _atom_site_charge
         N         N         0.49957   0.54225   0.22803   -0.452194           
         N         N         0.55137   0.55270   0.24750   -0.387058           
         C         C         0.55968   0.52574   0.25388   0.340124  
         C         C         0.58980   0.51748   0.26126   -0.038394           
         C         C         0.58977   0.48728   0.26584   -0.039456           
         C         C         0.55959   0.47796   0.26323   0.339796  
         C         C         0.61526   0.47172   0.27245   -0.188082           
         C         C         0.64029   0.48809   0.27130   0.170090  
         C         C         0.64030   0.51803   0.26611   0.169230  
         C         C         0.61531   0.53379   0.26076   -0.189607           
         O         O         0.66851   0.52794   0.26583   -0.337505           
         B         B         0.68571   0.50357   0.27171   0.587630  
         O         O         0.66850   0.47887   0.27561   -0.336320           
         N         N         0.94774   0.55133   0.23799   -0.386648           
         C         C         0.93924   0.52419   0.24258   0.339875  
         N         N         0.95625   0.50023   0.24619   -0.430944           
         C         C         0.93893   0.47647   0.25206   0.340085  
         C         C         0.90877   0.48556   0.25247   -0.038809           
         C         C         0.90904   0.51567   0.24691   -0.037761           
         C         C         0.88374   0.53193   0.24521   -0.190845           
         C         C         0.85852   0.51632   0.25101   0.169714  
         C         C         0.85817   0.48662   0.25880   0.169992  
         C         C         0.88303   0.47024   0.26025   -0.188275           
         C         C         0.97475   0.44092   0.25679   0.328650  
         C         C         0.96752   0.38399   0.24295   -0.178605           
         C         C         0.98383   0.35854   0.23692   0.173362  
         N         N         0.94726   0.44920   0.25488   -0.386048           
         O         O         0.83040   0.52634   0.25103   -0.337951           
         B         B         0.81294   0.50241   0.26146   0.587302  
         C         C         0.77986   0.50314   0.26613   -0.226541           
         C         C         0.76420   0.47774   0.27394   -0.057317           
         C         C         0.73445   0.52922   0.26488   -0.057656           
         C         C         0.76450   0.52895   0.26211   -0.055335           
         O         O         0.82982   0.47776   0.26666   -0.336833           
         H         H         0.61517   0.44895   0.28000   0.148499  
         H         H         0.61533   0.55660   0.25384   0.148142  
         H         H         0.88279   0.44766   0.26970   0.147887  
         H         H         0.88413   0.55473   0.23824   0.148139  
         H         H         0.72286   0.54919   0.26034   0.105561  
         H         H         0.77629   0.54868   0.25496   0.105168  
         H         H         0.72240   0.45837   0.28472   0.105340  
         H         H         0.77577   0.45788   0.27967   0.105624  
         C         C         0.56136   0.02563   0.24297   0.340220  
         C         C         0.59167   0.01744   0.24777   -0.038902           
         C         C         0.64232   0.01779   0.25014   0.169175  
         C         C         0.61725   0.03360   0.24569   -0.189557           
         H         H         0.61728   0.05642   0.23892   0.147978  
         N         N         0.54439   0.00149   0.24727   -0.430573           
         N         N         0.94996   0.05205   0.24696   -0.387125           
         C         C         0.94127   0.02510   0.25294   0.340250  
         N         N         0.95816   0.00087   0.25488   -0.431059           
         C         C         0.59182   0.98727   0.25267   -0.039002           
         O         O         0.67059   0.97847   0.25840   -0.337076           
         B         B         0.68775   0.00323   0.25489   0.586155  
         O         O         0.67060   0.02761   0.24926   -0.336983           
         C         C         0.91103   0.01686   0.25973   -0.039363           
         C         C         0.91069   0.98662   0.26374   -0.038484           
         C         C         0.94074   0.97726   0.26146   0.339529  
         C         C         0.88502   0.97106   0.27009   -0.189011           
         C         C         0.86052   0.01757   0.26614   0.171190  
         C         C         0.88569   0.03324   0.26009   -0.189105           
         C         C         0.86016   0.98755   0.27044   0.168438  
         O         O         0.83246   0.02755   0.26623   -0.337464           
         B         B         0.81494   0.00305   0.26966   0.586560  
         C         C         0.78186   0.00318   0.26595   -0.226428           
         C         C         0.76584   0.97682   0.26057   -0.055692           
         C         C         0.73581   0.97698   0.25709   -0.057674           
         C         C         0.72083   0.00340   0.25796   -0.224550           
         C         C         0.73681   0.02972   0.26263   -0.056719           
         O         O         0.83179   0.97834   0.27449   -0.336931           
         H         H         0.61719   0.94873   0.26378   0.148652  
         H         H         0.88490   0.94817   0.27615   0.148801  
         H         H         0.88593   0.05607   0.25341   0.148708  
         H         H         0.72365   0.95670   0.25567   0.106198  
         H         H         0.77711   0.95629   0.26071   0.106128  
         H         H         0.72551   0.05019   0.26191   0.106031  
         H         H         0.77895   0.05006   0.26968   0.105595  
         C         C         0.71880   0.50368   0.27154   -0.227142           
         C         C         0.73417   0.47799   0.27657   -0.054872           
         C         C         0.76685   0.02964   0.26701   -0.056366           
         N         N         0.49937   0.45949   0.26980   -0.452131           
         N         N         0.44753   0.44987   0.25900   -0.385569           
         C         C         0.43930   0.47682   0.25241   0.340293  
         C         C         0.40916   0.48561   0.25122   -0.040783           
         C         C         0.40922   0.51565   0.24506   -0.036703           
         C         C         0.43941   0.52425   0.23957   0.339540  
         C         C         0.38370   0.53164   0.24381   -0.190203           
         C         C         0.35865   0.51574   0.24976   0.170055  
         C         C         0.35861   0.48587   0.25579   0.169446  
         C         C         0.38366   0.46984   0.25781   -0.187925           
         O         O         0.33037   0.47646   0.26096   -0.336675           
         B         B         0.31320   0.50109   0.25773   0.587406  
         O         O         0.33043   0.52541   0.24999   -0.338302           
         N         N         0.05096   0.44918   0.25095   -0.385666           
         C         C         0.05952   0.47642   0.24764   0.339295  
         N         N         0.04244   0.50044   0.24493   -0.431290           
         C         C         0.05970   0.52443   0.24132   0.339532  
         C         C         0.08986   0.51566   0.24303   -0.038475           
         C         C         0.08975   0.48524   0.24509   -0.038125           
         C         C         0.11524   0.46932   0.24773   -0.190143           
         C         C         0.14035   0.48568   0.24743   0.170692  
         C         C         0.14045   0.51591   0.24552   0.169322  
         C         C         0.11544   0.53190   0.24243   -0.187882           
         C         C         0.02390   0.55972   0.23433   0.330183  
         C         C         0.03119   0.61618   0.24366   -0.178635           
         C         C         0.01486   0.64153   0.24874   0.172446  
         N         N         0.05139   0.55166   0.23802   -0.386226           
         O         O         0.16857   0.47631   0.25136   -0.338493           
         B         B         0.18585   0.50137   0.25202   0.587496  
         C         C         0.21897   0.50171   0.25729   -0.226139           
         C         C         0.23482   0.52795   0.26001   -0.057426           
         C         C         0.26421   0.47544   0.25964   -0.056660           
         C         C         0.23417   0.47555   0.25817   -0.056636           
         O         O         0.16874   0.52592   0.24745   -0.337381           
         H         H         0.38379   0.55443   0.23674   0.147686  
         H         H         0.38382   0.44720   0.26656   0.148215  
         H         H         0.11544   0.55500   0.23862   0.147950  
         H         H         0.11509   0.44632   0.25259   0.148612  
         H         H         0.27562   0.45514   0.26150   0.106018  
         H         H         0.22220   0.45535   0.25896   0.106351  
         H         H         0.27680   0.54811   0.26134   0.106066  
         H         H         0.22338   0.54829   0.25863   0.106327  
         C         C         0.44129   0.97533   0.24589   0.340226  
         C         C         0.41101   0.98365   0.24432   -0.039768           
         C         C         0.36043   0.98306   0.24738   0.168684  
         C         C         0.38571   0.96723   0.24752   -0.187403           
         H         H         0.38616   0.94422   0.25235   0.148456  
         N         N         0.45820   -0.00046  0.24197   -0.432237           
         N         N         0.05238   0.94872   0.25544   -0.387429           
         C         C         0.06107   0.97589   0.25167   0.341132  
         N         N         0.04421   0.00005   0.24887   -0.430680           
         C         C         0.41066   0.01402   0.24169   -0.037738           
         O         O         0.33179   0.02284   0.24803   -0.337997           
         B         B         0.31485   0.99789   0.25145   0.586919  
         O         O         0.33228   0.97316   0.25125   -0.336129           
         C         C         0.09136   0.98437   0.24875   -0.039370           
         C         C         0.09178   0.01477   0.24634   -0.037572           
         C         C         0.06168   0.02390   0.24499   0.339520  
         C         C         0.11761   0.03050   0.24446   -0.191155           
         C         C         0.14192   0.98391   0.24940   0.169880  
         C         C         0.11660   0.96802   0.25092   -0.189422           
         C         C         0.14237   0.01406   0.24668   0.170745  
         O         O         0.17002   0.97410   0.25230   -0.337484           
         B         B         0.18758   0.99876   0.25100   0.586805  
         C         C         0.22069   0.99862   0.25388   -0.225402           
         C         C         0.23658   0.02505   0.25914   -0.056548           
         C         C         0.26661   0.02477   0.25928   -0.056170           
         C         C         0.28175   0.99807   0.25422   -0.226618           
         C         C         0.26587   0.97178   0.25063   -0.056832           
         O         O         0.17076   0.02350   0.24632   -0.338147           
         H         H         0.38466   0.05275   0.23684   0.148259  
         H         H         0.11809   0.05358   0.24044   0.149217  
         H         H         0.11610   0.94502   0.25591   0.148758  
         H         H         0.27860   0.04522   0.26165   0.106264  
         H         H         0.22512   0.04569   0.26163   0.105912  
         H         H         0.27728   0.95121   0.24930   0.106782  
         H         H         0.22381   0.95169   0.24910   0.106984  
         C         C         0.28008   0.50149   0.26032   -0.225879           
         C         C         0.26487   0.52783   0.26141   -0.056321           
         C         C         0.23582   0.97205   0.25046   -0.057005           
         Zn        Zn        -0.00067  0.50067   0.24935   0.725248  
         Zn        Zn        0.00105   0.00017   0.24959   0.725455  
         N         N         0.45654   0.50047   0.24489   -0.431030           
         N         N         0.44779   0.55116   0.23200   -0.386162           
         C         C         0.47529   0.55946   0.22846   0.327992  
         C         C         0.48438   0.58980   0.23017   -0.042843           
         C         C         0.51505   0.59046   0.23811   -0.040894           
         C         C         0.52393   0.56032   0.23787   0.329204  
         C         C         0.53139   0.61684   0.24879   -0.178608           
         C         C         0.51528   0.64179   0.24744   0.170267  
         C         C         0.48483   0.64095   0.23632   0.168948  
         C         C         0.46837   0.61528   0.22893   -0.176364           
         O         O         0.47539   0.66899   0.23344   -0.341043           
         B         B         0.50059   0.68682   0.24274   0.579842  
         O         O         0.52531   0.67037   0.25308   -0.339490           
         N         N         0.45000   0.94828   0.24964   -0.385245           
         C         C         0.47759   0.94079   0.25542   0.327995  
         N         N         0.50173   0.95908   0.26377   -0.452978           
         C         C         0.52625   0.94212   0.26198   0.329708  
         C         C         0.51758   0.91162   0.25925   -0.042464           
         C         C         0.48691   0.91067   0.25351   -0.043105           
         C         C         0.47096   0.88415   0.24419   -0.178905           
         C         C         0.48751   0.85926   0.24284   0.170889  
         C         C         0.51799   0.86030   0.25023   0.172759  
         C         C         0.53404   0.88624   0.25802   -0.178951           
         C         C         0.56174   0.97804   0.25401   0.340192  
         C         C         0.61733   0.97157   0.25716   -0.190011           
         C         C         0.64236   0.98783   0.25506   0.170400  
         N         N         0.55363   0.95088   0.25983   -0.386021           
         O         O         0.47795   0.83058   0.23791   -0.338856           
         B         B         0.50308   0.81422   0.24403   0.577903  
         C         C         0.50285   0.78120   0.24532   -0.215240           
         C         C         0.52839   0.76739   0.27061   -0.063142           
         C         C         0.47588   0.73350   0.21434   -0.065558           
         C         C         0.47660   0.76379   0.21776   -0.054287           
         O         O         0.52798   0.83223   0.25012   -0.339880           
         H         H         0.55481   0.61741   0.25637   0.152493  
         H         H         0.44494   0.61456   0.22078   0.151213  
         H         H         0.55745   0.88730   0.26503   0.151587  
         H         H         0.44752   0.88346   0.24030   0.152912  
         H         H         0.45551   0.72014   0.19125   0.110242  
         H         H         0.45679   0.77424   0.19752   0.109030  
         H         H         0.54744   0.72672   0.28823   0.108450  
         H         H         0.54877   0.78081   0.29446   0.109444  
         C         C         0.97525   0.55954   0.23423   0.329317  
         C         C         0.98430   0.58993   0.23722   -0.042074           
         C         C         0.98439   0.64138   0.24830   0.170229  
         C         C         0.96808   0.61583   0.24307   -0.179121           
         H         H         0.94465   0.61548   0.24146   0.152230  
         N         N         -0.00047  0.54199   0.22915   -0.451033           
         N         N         0.94879   0.94989   0.26400   -0.386183           
         C         C         0.97620   0.94128   0.26442   0.328179  
         N         N         0.00070   0.95862   0.26741   -0.450217           
         C         C         0.01496   0.59006   0.23735   -0.041579           
         O         O         0.02463   0.66997   0.25174   -0.340229           
         B         B         -0.00030  0.68705   0.25172   0.579302  
         O         O         0.97465   0.66971   0.25074   -0.340738           
         C         C         0.98489   0.91075   0.26018   -0.041925           
         C         C         0.01555   0.91040   0.25751   -0.042464           
         C         C         0.02483   0.94075   0.26047   0.333203  
         C         C         0.03150   0.88413   0.24928   -0.178660           
         C         C         0.98448   0.85915   0.24769   0.168041  
         C         C         0.96842   0.88491   0.25567   -0.178072           
         C         C         0.01494   0.85873   0.24393   0.172840  
         O         O         0.97442   0.83077   0.24478   -0.339037           
         B         B         -0.00070  0.81316   0.24034   0.578052  
         C         C         -0.00069  0.78037   0.24377   -0.213095           
         C         C         0.02560   0.76539   0.24593   -0.058758           
         C         C         0.02585   0.73552   0.24699   -0.059389           
         C         C         -0.00024  0.71981   0.24789   -0.214418           
         C         C         0.97352   0.73480   0.24585   -0.060348           
         O         O         0.02444   0.83002   0.23777   -0.340892           
         H         H         0.05463   0.61620   0.24295   0.151562  
         H         H         0.05494   0.88408   0.24922   0.151238  
         H         H         0.94500   0.88539   0.26006   0.152392  
         H         H         0.04625   0.72407   0.24790   0.108971  
         H         H         0.04578   0.77752   0.24604   0.108491  
         H         H         0.95333   0.72273   0.24615   0.109808  
         H         H         0.95286   0.77608   0.24316   0.109798  
         C         C         0.50137   0.71970   0.23982   -0.213229           
         C         C         0.52766   0.73710   0.26708   -0.056370           
         C         C         0.97327   0.76468   0.24455   -0.060592           
         N         N         0.54249   0.50155   0.25568   -0.431328           
         N         N         0.55114   0.45062   0.26589   -0.385044           
         C         C         0.52363   0.44203   0.26625   0.328322  
         C         C         0.51450   0.41160   0.26312   -0.043084           
         C         C         0.48382   0.41161   0.26321   -0.043492           
         C         C         0.47498   0.44181   0.26424   0.329406  
         C         C         0.46741   0.38579   0.25920   -0.177859           
         C         C         0.48353   0.36029   0.25406   0.172226  
         C         C         0.51401   0.36020   0.25337   0.170776  
         C         C         0.53051   0.38558   0.25783   -0.177986           
         O         O         0.52361   0.33175   0.25020   -0.338697           
         B         B         0.49850   0.31451   0.24949   0.577581  
         O         O         0.47357   0.33185   0.25084   -0.340358           
         N         N         0.55261   0.05245   0.23639   -0.386732           
         C         C         0.52500   0.05997   0.23048   0.328987  
         N         N         0.50086   0.04186   0.22494   -0.449914           
         C         C         0.47632   0.05910   0.23093   0.327959  
         C         C         0.48490   0.08966   0.23437   -0.042407           
         C         C         0.51558   0.09018   0.23292   -0.040833           
         C         C         0.53127   0.11648   0.23723   -0.177915           
         C         C         0.51449   0.14158   0.24261   0.169409  
         C         C         0.48402   0.14116   0.24597   0.169617  
         C         C         0.46821   0.11539   0.24193   -0.177639           
         C         C         0.44075   0.02324   0.23865   0.339914  
         C         C         0.38492   0.02974   0.24158   -0.188741           
         C         C         0.36010   0.01331   0.24557   0.169958  
         N         N         0.44890   0.05055   0.23495   -0.386392           
         O         O         0.52369   0.17010   0.24376   -0.340634           
         B         B         0.49836   0.18702   0.24775   0.579003  
         C         C         0.49811   0.22000   0.24582   -0.213017           
         C         C         0.47215   0.23691   0.26221   -0.058369           
         C         C         0.52430   0.26437   0.23208   -0.055242           
         C         C         0.52416   0.23418   0.22976   -0.064450           
         O         O         0.47369   0.16944   0.25010   -0.338779           
         H         H         0.44398   0.38621   0.26244   0.151777  
         H         H         0.55394   0.38555   0.25873   0.152239  
         H         H         0.44478   0.11477   0.24292   0.151678  
         H         H         0.55470   0.11681   0.23444   0.151783  
         H         H         0.54456   0.27503   0.21892   0.108847  
         H         H         0.54432   0.22124   0.21585   0.110347  
         H         H         0.45214   0.28011   0.27938   0.109385  
         H         H         0.45188   0.22633   0.27564   0.109000  
         C         C         0.02345   0.44099   0.25534   0.327822  
         C         C         0.01438   0.41039   0.25002   -0.043931           
         C         C         0.01432   0.35884   0.23825   0.169428  
         C         C         0.03059   0.38443   0.24354   -0.178050           
         H         H         0.05403   0.38473   0.24478   0.151896  
         N         N         0.99914   0.45876   0.26346   -0.451611           
         N         N         0.05359   0.05117   0.24119   -0.386760           
         C         C         0.02619   0.05961   0.23785   0.328945  
         N         N         0.00169   0.04210   0.23368   -0.452420           
         C         C         0.98370   0.41028   0.25056   -0.041209           
         O         O         0.97413   0.32987   0.23220   -0.339546           
         B         B         0.99916   0.31293   0.23321   0.578076  
         O         O         0.02415   0.33055   0.23578   -0.340340           
         C         C         0.01740   0.09005   0.24028   -0.041126           
         C         C         0.98672   0.09008   0.24128   -0.042143           
         C         C         0.97751   0.05988   0.24023   0.327139  
         C         C         0.97056   0.11592   0.24586   -0.178630           
         C         C         0.01732   0.14145   0.24839   0.169380  
         C         C         0.03359   0.11610   0.24470   -0.178226           
         C         C         0.98685   0.14128   0.24868   0.172666  
         O         O         0.02702   0.16988   0.24964   -0.340386           
         B         B         0.00192   0.18681   0.24894   0.578325  
         C         C         0.00127   0.21949   0.24298   -0.212201           
         C         C         0.97472   0.23338   0.23316   -0.059847           
         C         C         0.97387   0.26314   0.23073   -0.059778           
         C         C         -0.00042  0.28001   0.23610   -0.211887           
         C         C         0.02609   0.26605   0.24484   -0.061523           
         O         O         0.97700   0.16945   0.24984   -0.340689           
         H         H         0.94409   0.38402   0.24427   0.150929  
         H         H         0.94712   0.11561   0.24519   0.151570  
         H         H         0.05703   0.11608   0.24342   0.151923  
         H         H         0.95322   0.27357   0.22358   0.108720  
         H         H         0.95474   0.22052   0.22834   0.108645  
         H         H         0.04607   0.27884   0.24894   0.109944  
         H         H         0.04758   0.22599   0.25615   0.110143  
         C         C         0.49836   0.28135   0.24929   -0.214497           
         C         C         0.47229   0.26711   0.26464   -0.062042           
         C         C         0.02693   0.23632   0.24793   -0.060683           
         Zn        Zn        0.50134   0.00014   0.24183   0.725650  
         Zn        Zn        0.49964   0.50081   0.24924   0.726233  
         N         N         0.50007   0.54035   0.73192   -0.451788           
         N         N         0.55190   0.55068   0.74909   -0.385636           
         C         C         0.56021   0.52372   0.75546   0.339811  
         C         C         0.59036   0.51521   0.76230   -0.038840           
         C         C         0.58999   0.48485   0.76505   -0.038408           
         C         C         0.55980   0.47584   0.76354   0.340255  
         C         C         0.61517   0.46870   0.76966   -0.190150           
         C         C         0.64046   0.48479   0.77061   0.170352  
         C         C         0.64099   0.51495   0.76790   0.170236  
         C         C         0.61620   0.53118   0.76301   -0.188600           
         O         O         0.66946   0.52424   0.76756   -0.338161           
         B         B         0.68615   0.49927   0.77042   0.586639  
         O         O         0.66846   0.47487   0.77397   -0.336767           
         N         N         0.94687   0.54911   0.73743   -0.385849           
         C         C         0.93905   0.52174   0.74158   0.338902  
         N         N         0.95670   0.49802   0.74321   -0.431904           
         C         C         0.94006   0.47363   0.74742   0.340931  
         C         C         0.90970   0.48194   0.74822   -0.039587           
         C         C         0.90910   0.51242   0.74681   -0.037841           
         C         C         0.88327   0.52820   0.74907   -0.188638           
         C         C         0.85858   0.51174   0.75450   0.170870  
         C         C         0.85913   0.48143   0.75542   0.169107  
         C         C         0.88449   0.46546   0.75252   -0.188771           
         C         C         0.97671   0.43913   0.75409   0.330549  
         C         C         0.97147   0.38207   0.74310   -0.179018           
         C         C         0.98880   0.35736   0.73796   0.169756  
         N         N         0.94903   0.44656   0.75039   -0.387134           
         O         O         0.83021   0.52119   0.75828   -0.337669           
         B         B         0.81344   0.49620   0.76177   0.585926  
         C         C         0.78033   0.49657   0.76490   -0.224221           
         C         C         0.76404   0.47008   0.75564   -0.056802           
         C         C         0.73556   0.52487   0.77725   -0.056589           
         C         C         0.76558   0.52396   0.77576   -0.057978           
         O         O         0.83104   0.47149   0.76061   -0.337282           
         H         H         0.61467   0.44562   0.77354   0.149180  
         H         H         0.61655   0.55410   0.75714   0.148347  
         H         H         0.88504   0.44228   0.75534   0.148840  
         H         H         0.88279   0.55125   0.74481   0.148312  
         H         H         0.72451   0.54605   0.78346   0.107080  
         H         H         0.77791   0.54448   0.78129   0.107395  
         H         H         0.72166   0.45045   0.75124   0.106309  
         H         H         0.77511   0.44879   0.74783   0.106812  
         C         C         0.55883   0.02330   0.74422   0.339869  
         C         C         0.58905   0.01519   0.74878   -0.038235           
         C         C         0.63962   0.01647   0.75166   0.170578  
         C         C         0.61430   0.03184   0.74735   -0.188283           
         H         H         0.61380   0.05474   0.74147   0.148090  
         N         N         0.54185   0.99922   0.74887   -0.432546           
         N         N         0.94904   0.05330   0.74679   -0.387187           
         C         C         0.93973   0.02656   0.75301   0.338785  
         N         N         0.95619   0.00206   0.75559   -0.429577           
         C         C         0.58940   0.98499   0.75322   -0.037990           
         O         O         0.66844   0.97764   0.76016   -0.338687           
         B         B         0.68530   0.00267   0.75664   0.587804  
         O         O         0.66771   0.02680   0.75133   -0.337496           
         C         C         0.90925   0.01880   0.75871   -0.037720           
         C         C         0.90846   0.98846   0.76153   -0.039415           
         C         C         0.93832   0.97864   0.76053   0.339696  
         C         C         0.88263   0.97316   0.76719   -0.188159           
         C         C         0.85863   0.02010   0.76497   0.169496  
         C         C         0.88406   0.03555   0.75965   -0.190301           
         C         C         0.85799   0.99003   0.76859   0.170751  
         O         O         0.83053   0.03029   0.76552   -0.339155           
         B         B         0.81285   0.00587   0.76933   0.588623  
         C         C         0.77968   0.00543   0.76593   -0.225436           
         C         C         0.76444   0.97848   0.75934   -0.056837           
         C         C         0.73440   0.97760   0.75571   -0.057573           
         C         C         0.71845   0.00365   0.75882   -0.223654           
         C         C         0.73368   0.03058   0.76503   -0.058306           
         O         O         0.82964   0.98109   0.77363   -0.337488           
         H         H         0.61559   0.94682   0.76339   0.148249  
         H         H         0.88222   0.95017   0.77212   0.148282  
         H         H         0.88461   0.05851   0.75437   0.147998  
         H         H         0.72302   0.95670   0.75228   0.105986  
         H         H         0.77639   0.95828   0.75885   0.106615  
         H         H         0.72176   0.05086   0.76625   0.106153  
         H         H         0.77516   0.05232   0.77156   0.106450  
         C         C         0.71926   0.49843   0.76856   -0.224843           
         C         C         0.73400   0.47103   0.75767   -0.056807           
         C         C         0.76375   0.03144   0.76829   -0.056138           
         N         N         0.49963   0.45760   0.77356   -0.453142           
         N         N         0.44783   0.44739   0.75917   -0.386244           
         C         C         0.43954   0.47436   0.75280   0.339783  
         C         C         0.40939   0.48320   0.75121   -0.039170           
         C         C         0.40956   0.51347   0.74747   -0.038084           
         C         C         0.43977   0.52203   0.74240   0.340074  
         C         C         0.38415   0.52973   0.74771   -0.188931           
         C         C         0.35903   0.51387   0.75270   0.170823  
         C         C         0.35878   0.48373   0.75562   0.169229  
         C         C         0.38374   0.46738   0.75556   -0.189650           
         O         O         0.33043   0.47449   0.76025   -0.337608           
         B         B         0.31347   0.49945   0.75910   0.588192  
         O         O         0.33090   0.52392   0.75463   -0.338678           
         N         N         0.05251   0.44977   0.75029   -0.386429           
         C         C         0.06020   0.47720   0.74674   0.339693  
         N         N         0.04271   0.50080   0.74324   -0.430633           
         C         C         0.05959   0.52522   0.74062   0.340729  
         C         C         0.09000   0.51693   0.74358   -0.038229           
         C         C         0.09016   0.48648   0.74527   -0.039580           
         C         C         0.11550   0.47039   0.74761   -0.190189           
         C         C         0.14060   0.48668   0.74783   0.170455  
         C         C         0.14070   0.51697   0.74656   0.169281  
         C         C         0.11571   0.53308   0.74358   -0.187626           
         C         C         0.02285   0.55961   0.73278   0.328489  
         C         C         0.02830   0.61655   0.74292   -0.180004           
         C         C         0.01117   0.64143   0.74825   0.171303  
         N         N         0.05058   0.55223   0.73711   -0.387050           
         O         O         0.16872   0.47717   0.75137   -0.336632           
         B         B         0.18610   0.50213   0.75214   0.586839  
         C         C         0.21923   0.50180   0.75642   -0.224890           
         C         C         0.23570   0.52781   0.76108   -0.057308           
         C         C         0.26388   0.47426   0.75661   -0.056829           
         C         C         0.23384   0.47504   0.75448   -0.056704           
         O         O         0.16906   0.52681   0.74828   -0.338484           
         H         H         0.38431   0.55267   0.74218   0.148344  
         H         H         0.38371   0.44443   0.76092   0.148916  
         H         H         0.11596   0.55619   0.73995   0.147591  
         H         H         0.11518   0.44726   0.75110   0.149199  
         H         H         0.27480   0.45350   0.75635   0.106381  
         H         H         0.22140   0.45488   0.75250   0.105971  
         H         H         0.27820   0.54707   0.76414   0.105671  
         H         H         0.22480   0.54855   0.76108   0.106483  
         C         C         0.43875   0.97385   0.74568   0.339405  
         C         C         0.40854   0.98233   0.74427   -0.040474           
         C         C         0.35806   0.98217   0.75057   0.169101  
         C         C         0.38324   0.96612   0.74929   -0.189472           
         H         H         0.38357   0.94318   0.75469   0.148995  
         N         N         0.45573   0.99799   0.74182   -0.429401           
         N         N         0.04926   0.94754   0.75607   -0.387383           
         C         C         0.05855   0.97452   0.75271   0.340498  
         N         N         0.04212   0.99904   0.75033   -0.431326           
         C         C         0.40826   0.01271   0.74175   -0.036688           
         O         O         0.32933   0.02167   0.74884   -0.338270           
         B         B         0.31251   0.99693   0.75483   0.586903  
         O         O         0.33001   0.97249   0.75733   -0.336185           
         C         C         0.08899   0.98238   0.74873   -0.037820           
         C         C         0.08985   0.01271   0.74585   -0.038478           
         C         C         0.06002   0.02238   0.74491   0.340047  
         C         C         0.11572   0.02822   0.74336   -0.188319           
         C         C         0.13955   0.98141   0.74817   0.168765  
         C         C         0.11410   0.96575   0.75014   -0.189558           
         C         C         0.14031   0.01157   0.74542   0.170230  
         O         O         0.16756   0.97133   0.75065   -0.337539           
         B         B         0.18532   0.99587   0.74883   0.587191  
         C         C         0.21841   0.99602   0.75160   -0.226710           
         C         C         0.23393   0.02250   0.75461   -0.056399           
         C         C         0.26396   0.02277   0.75622   -0.056185           
         C         C         0.27943   0.99664   0.75549   -0.226727           
         C         C         0.26393   0.97023   0.75312   -0.055223           
         O         O         0.16873   0.02077   0.74481   -0.337101           
         H         H         0.38230   0.05165   0.73824   0.148381  
         H         H         0.11618   0.05124   0.73873   0.148329  
         H         H         0.11346   0.94274   0.75495   0.148807  
         H         H         0.27570   0.04317   0.75622   0.106328  
         H         H         0.22223   0.04275   0.75395   0.106045  
         H         H         0.27566   0.95004   0.75416   0.105633  
         H         H         0.22216   0.94947   0.75055   0.105984  
         C         C         0.28034   0.50020   0.76038   -0.225242           
         C         C         0.26574   0.52701   0.76301   -0.056317           
         C         C         0.23389   0.96992   0.75110   -0.056518           
         Zn        Zn        -0.00042  0.49927   0.74165   0.724940  
         Zn        Zn        0.99923   0.00113   0.75726   0.725396  
         N         N         0.45683   0.49815   0.74693   -0.431216           
         N         N         0.44824   0.54896   0.73538   -0.386460           
         C         C         0.47572   0.55738   0.73202   0.327658  
         C         C         0.48472   0.58759   0.73219   -0.044006           
         C         C         0.51540   0.58832   0.73868   -0.042245           
         C         C         0.52443   0.55833   0.73998   0.330177  
         C         C         0.53156   0.61463   0.74636   -0.177975           
         C         C         0.51525   0.63959   0.74624   0.171334  
         C         C         0.48478   0.63860   0.73701   0.172539  
         C         C         0.46852   0.61289   0.73053   -0.177742           
         O         O         0.47496   0.66648   0.73437   -0.340582           
         B         B         0.49993   0.68458   0.74252   0.577267  
         O         O         0.52497   0.66825   0.75074   -0.339787           
         N         N         0.44730   0.94682   0.75020   -0.385918           
         C         C         0.47481   0.93921   0.75745   0.329931  
         N         N         0.49911   0.95738   0.76689   -0.453290           
         C         C         0.52351   0.94009   0.76408   0.327790  
         C         C         0.51448   0.90951   0.76006   -0.041195           
         C         C         0.48380   0.90890   0.75449   -0.042681           
         C         C         0.46746   0.88243   0.74308   -0.176872           
         C         C         0.48361   0.85716   0.74037   0.169226  
         C         C         0.51408   0.85793   0.74880   0.168603  
         C         C         0.53052   0.88371   0.75731   -0.178647           
         C         C         0.55925   0.97571   0.75523   0.339959  
         C         C         0.61523   0.96972   0.75736   -0.189517           
         C         C         0.64004   0.98646   0.75607   0.169167  
         N         N         0.55098   0.94863   0.76142   -0.387520           
         O         O         0.47372   0.82831   0.73283   -0.337822           
         B         B         0.49864   0.81167   0.73879   0.579569  
         C         C         0.49879   0.77860   0.73975   -0.213881           
         C         C         0.52486   0.76591   0.76694   -0.064147           
         C         C         0.47353   0.73022   0.71242   -0.064478           
         C         C         0.47312   0.76024   0.71273   -0.057466           
         O         O         0.52371   0.82972   0.74845   -0.341468           
         H         H         0.55500   0.61499   0.74977   0.152041  
         H         H         0.44510   0.61205   0.72264   0.151755  
         H         H         0.55395   0.88422   0.76338   0.152151  
         H         H         0.44402   0.88216   0.73797   0.151558  
         H         H         0.45358   0.71617   0.69000   0.109773  
         H         H         0.45291   0.76960   0.68898   0.108939  
         H         H         0.54554   0.72652   0.78947   0.108955  
         H         H         0.54481   0.77994   0.78868   0.109318  
         C         C         0.97413   0.55806   0.73277   0.327278  
         C         C         0.98230   0.58878   0.73677   -0.041383           
         C         C         0.98071   0.64032   0.74849   0.171829  
         C         C         0.96528   0.61420   0.74296   -0.178822           
         H         H         0.94185   0.61305   0.74130   0.151591  
         N         N         0.99891   0.54111   0.72624   -0.451665           
         N         N         0.94575   0.95109   0.76296   -0.386702           
         C         C         0.97292   0.94191   0.76476   0.330127  
         N         N         0.99781   0.95891   0.77040   -0.452521           
         C         C         0.01298   0.58984   0.73684   -0.040992           
         O         O         0.02000   0.67020   0.75098   -0.340991           
         B         B         0.99443   0.68656   0.75212   0.577898  
         O         O         0.96999   0.66837   0.75160   -0.339735           
         C         C         0.98087   0.91095   0.75830   -0.040357           
         C         C         0.01151   0.90989   0.75508   -0.041991           
         C         C         0.02151   0.94024   0.76085   0.329010  
         C         C         0.02691   0.88319   0.74552   -0.180236           
         C         C         0.97940   0.85921   0.74467   0.172262  
         C         C         0.96389   0.88532   0.75239   -0.178938           
         C         C         0.00986   0.85824   0.74185   0.171355  
         O         O         0.96884   0.83095   0.74156   -0.340070           
         B         B         0.99336   0.81297   0.73917   0.578770  
         C         C         0.99312   0.78009   0.74281   -0.211675           
         C         C         0.01937   0.76507   0.74507   -0.059706           
         C         C         0.01963   0.73533   0.74801   -0.060913           
         C         C         0.99367   0.71947   0.74900   -0.211337           
         C         C         0.96739   0.73445   0.74628   -0.058966           
         O         O         0.01878   0.82957   0.73827   -0.340812           
         H         H         0.05172   0.61736   0.74108   0.151974  
         H         H         0.05034   0.88255   0.74339   0.152345  
         H         H         0.94048   0.88628   0.75618   0.151279  
         H         H         0.04007   0.72408   0.75061   0.109618  
         H         H         0.03961   0.77696   0.74355   0.109984  
         H         H         0.94716   0.72245   0.74667   0.107842  
         H         H         0.94668   0.77564   0.74289   0.108509  
         C         C         0.49962   0.71754   0.74001   -0.212701           
         C         C         0.52528   0.73589   0.76669   -0.054616           
         C         C         0.96712   0.76428   0.74430   -0.062199           
         N         N         0.54284   0.49960   0.75731   -0.430795           
         N         N         0.55139   0.44856   0.76663   -0.387264           
         C         C         0.52393   0.44010   0.76871   0.330202  
         C         C         0.51501   0.40951   0.76376   -0.042979           
         C         C         0.48434   0.40927   0.76335   -0.041882           
         C         C         0.47531   0.43960   0.76596   0.328964  
         C         C         0.46825   0.38310   0.75762   -0.178064           
         C         C         0.48464   0.35774   0.75202   0.169713  
         C         C         0.51511   0.35777   0.74943   0.169799  
         C         C         0.53132   0.38348   0.75561   -0.177396           
         O         O         0.52499   0.32917   0.74334   -0.338932           
         B         B         0.50005   0.31196   0.74540   0.579033  
         O         O         0.47497   0.32926   0.74960   -0.340574           
         N         N         0.55028   0.05015   0.73768   -0.385930           
         C         C         0.52277   0.05784   0.73175   0.328485  
         N         N         0.49848   0.04004   0.72640   -0.451548           
         C         C         0.47412   0.05749   0.73139   0.330636  
         C         C         0.48308   0.08790   0.73399   -0.041644           
         C         C         0.51374   0.08794   0.73278   -0.043805           
         C         C         0.53005   0.11368   0.73567   -0.177854           
         C         C         0.51383   0.13904   0.74034   0.172301  
         C         C         0.48336   0.13927   0.74399   0.171510  
         C         C         0.46696   0.11393   0.74063   -0.178247           
         C         C         0.43839   0.02181   0.73866   0.339125  
         C         C         0.38255   0.02856   0.74216   -0.190258           
         C         C         0.35770   0.01224   0.74686   0.171206  
         N         N         0.44666   0.04910   0.73509   -0.385169           
         O         O         0.52371   0.16730   0.74161   -0.339604           
         B         B         0.49880   0.18482   0.74590   0.577017  
         C         C         0.49926   0.21788   0.74530   -0.213121           
         C         C         0.47344   0.23499   0.76225   -0.057047           
         C         C         0.52583   0.26203   0.73189   -0.057846           
         C         C         0.52548   0.23186   0.72976   -0.062211           
         O         O         0.47371   0.16784   0.74861   -0.340027           
         H         H         0.44482   0.38307   0.75932   0.151565  
         H         H         0.55476   0.38372   0.75543   0.151985  
         H         H         0.44352   0.11399   0.74163   0.151914  
         H         H         0.55348   0.11338   0.73279   0.152075  
         H         H         0.54613   0.27260   0.71868   0.109062  
         H         H         0.54556   0.21877   0.71587   0.109618  
         H         H         0.45369   0.27816   0.77759   0.110108  
         H         H         0.45316   0.22443   0.77573   0.109378  
         C         C         0.02529   0.44081   0.75436   0.331409  
         C         C         0.01726   0.41010   0.75025   -0.042544           
         C         C         0.01925   0.35863   0.73791   0.170493  
         C         C         0.03452   0.38483   0.74351   -0.177227           
         H         H         0.05792   0.38613   0.74423   0.151134  
         N         N         0.00055   0.45768   0.76033   -0.450106           
         N         N         0.05259   0.04975   0.74040   -0.386695           
         C         C         0.02543   0.05881   0.73724   0.328956  
         N         N         0.00052   0.04204   0.73366   -0.451575           
         C         C         0.98662   0.40891   0.75002   -0.040803           
         O         O         0.98010   0.32852   0.73455   -0.340577           
         B         B         0.00576   0.31239   0.73426   0.578247  
         O         O         0.03011   0.33058   0.73414   -0.338792           
         C         C         0.01751   0.08934   0.73926   -0.042936           
         C         C         0.98686   0.09036   0.74054   -0.040688           
         C         C         0.97679   0.06043   0.73975   0.330162  
         C         C         0.97162   0.11679   0.74522   -0.179195           
         C         C         0.01932   0.14056   0.74749   0.170754  
         C         C         0.03468   0.11467   0.74338   -0.177361           
         C         C         0.98886   0.14153   0.74797   0.170799  
         O         O         0.03011   0.16857   0.74909   -0.339033           
         B         B         0.00574   0.18641   0.74812   0.577351  
         C         C         0.00646   0.21906   0.74284   -0.211870           
         C         C         0.98036   0.23368   0.73415   -0.060166           
         C         C         0.98038   0.26350   0.73240   -0.061497           
         C         C         0.00650   0.27966   0.73858   -0.212227           
         C         C         0.03266   0.26509   0.74751   -0.061257           
         O         O         0.98011   0.17008   0.74916   -0.341099           
         H         H         0.94806   0.38098   0.74371   0.152492  
         H         H         0.94820   0.11739   0.74434   0.151915  
         H         H         0.05809   0.11371   0.74190   0.151821  
         H         H         0.96012   0.27456   0.72490   0.110127  
         H         H         0.96005   0.22133   0.72889   0.110259  
         H         H         0.05297   0.27747   0.75306   0.108616  
         H         H         0.05296   0.22407   0.75502   0.108426  
         C         C         0.49995   0.27904   0.74766   -0.213548           
         C         C         0.47377   0.26510   0.76384   -0.064487           
         C         C         0.03265   0.23518   0.74846   -0.058992           
         Zn        Zn        0.49871   0.99849   0.74257   0.725932  
         Zn        Zn        0.49991   0.49901   0.75105   0.726771 

