
##########################################################################
#               Crystallographic Information Format file
#               Produced by PyCifRW module
#
#  This is a CIF file.  CIF has been adopted by the International
#  Union of Crystallography as the standard for data archiving and
#  transmission.
#
#  For information on this file format, follow the CIF links at
#  http://www.iucr.org
##########################################################################

data_image0

_cell_length_a                          46.0989
_cell_length_b                          46.112
_cell_length_c                          7.82348
_cell_angle_alpha                       122.445
_cell_angle_beta                        90.2828
_cell_angle_gamma                       90.3094
_symmetry_space_group_name_H-M          'P 1'
_space_group_name_Hall                  'P 1'
loop_
  _atom_site_type_symbol
  _atom_site_label
  _atom_site_fract_x
  _atom_site_fract_y
  _atom_site_fract_z
  _atom_site_charge
         N         N         0.49948   0.54188   0.24231   -0.438408           
         N         N         0.55140   0.55292   0.25120   -0.385054           
         C         C         0.55896   0.52543   0.25460   0.325796  
         C         C         0.58899   0.51723   0.26101   -0.038768           
         C         C         0.58892   0.48678   0.26306   -0.040075           
         C         C         0.55875   0.47743   0.25921   0.327275  
         C         C         0.61461   0.47114   0.26910   -0.189127           
         C         C         0.63976   0.48781   0.27006   0.168009  
         C         C         0.63974   0.51809   0.26672   0.166118  
         C         C         0.61460   0.53393   0.26218   -0.190898           
         O         O         0.66814   0.52817   0.26735   -0.339480           
         B         B         0.68544   0.50358   0.27167   0.585160  
         O         O         0.66819   0.47857   0.27381   -0.338816           
         N         N         0.94731   0.55108   0.23742   -0.405648           
         C         C         0.93995   0.52384   0.24167   0.331217  
         N         N         0.95799   0.49964   0.24450   -0.407286           
         C         C         0.93963   0.47590   0.25163   0.334879  
         C         C         0.90966   0.48526   0.25318   -0.030749           
         C         C         0.90995   0.51539   0.24790   -0.029573           
         C         C         0.88460   0.53201   0.24737   -0.187332           
         C         C         0.85929   0.51633   0.25339   0.171435  
         C         C         0.85888   0.48618   0.25878   0.173631  
         C         C         0.88383   0.46969   0.26001   -0.185914           
         C         C         0.97466   0.44097   0.25525   0.308169  
         C         C         0.96728   0.38491   0.25081   -0.174659           
         C         C         0.98374   0.35941   0.24533   0.173169  
         N         N         0.94684   0.44846   0.25373   -0.407520           
         O         O         0.83109   0.52660   0.25603   -0.335274           
         B         B         0.81341   0.50227   0.26263   0.588851  
         C         C         0.78016   0.50298   0.26687   -0.228128           
         C         C         0.76428   0.47667   0.26562   -0.055999           
         C         C         0.73461   0.53008   0.27367   -0.057807           
         C         C         0.76482   0.52974   0.27138   -0.055253           
         O         O         0.83039   0.47718   0.26440   -0.334463           
         H         H         0.61450   0.44802   0.27370   0.147422  
         H         H         0.61450   0.55702   0.25722   0.147766  
         H         H         0.88371   0.44686   0.26769   0.149602  
         H         H         0.88509   0.55488   0.24002   0.149677  
         H         H         0.72309   0.55071   0.27465   0.105655  
         H         H         0.77679   0.55014   0.27116   0.105504  
         H         H         0.72214   0.45661   0.26835   0.106231  
         H         H         0.77580   0.45603   0.26454   0.105656  
         C         C         0.56032   0.02544   0.24467   0.327181  
         C         C         0.59052   0.01728   0.24902   -0.039744           
         C         C         0.64136   0.01766   0.25122   0.166910  
         C         C         0.61621   0.03373   0.24830   -0.189880           
         H         H         0.61620   0.05689   0.24398   0.147103  
         N         N         0.54254   0.00122   0.24720   -0.393413           
         N         N         0.94937   0.05210   0.24501   -0.408784           
         C         C         0.94173   0.02507   0.25091   0.333352  
         N         N         0.95967   0.00078   0.25320   -0.408110           
         C         C         0.59062   0.98691   0.25195   -0.039427           
         O         O         0.66970   0.97794   0.25739   -0.339732           
         B         B         0.68705   0.00288   0.25552   0.586499  
         O         O         0.66981   0.02753   0.25100   -0.339570           
         C         C         0.91163   0.01680   0.25840   -0.030633           
         C         C         0.91134   0.98653   0.26219   -0.029012           
         C         C         0.94121   0.97707   0.26013   0.332507  
         C         C         0.88565   0.97056   0.26693   -0.186774           
         C         C         0.86090   0.01745   0.26445   0.172705  
         C         C         0.88614   0.03331   0.25871   -0.185710           
         C         C         0.86067   0.98705   0.26740   0.171870  
         O         O         0.83262   0.02735   0.26570   -0.334868           
         B         B         0.81512   0.00245   0.26752   0.588867  
         C         C         0.78185   0.00252   0.26527   -0.227966           
         C         C         0.76570   0.97548   0.25389   -0.056381           
         C         C         0.73549   0.97566   0.25104   -0.056581           
         C         C         0.72038   0.00283   0.25878   -0.222861           
         C         C         0.73652   0.02986   0.27024   -0.058027           
         O         O         0.83227   0.97747   0.26942   -0.334501           
         H         H         0.61607   0.94786   0.26060   0.147748  
         H         H         0.88566   0.94746   0.27175   0.149650  
         H         H         0.88647   0.05630   0.25251   0.149406  
         H         H         0.72338   0.95470   0.24392   0.105947  
         H         H         0.77704   0.95435   0.24843   0.105789  
         H         H         0.72520   0.05092   0.27477   0.105988  
         H         H         0.77888   0.05070   0.28109   0.105469  
         C         C         0.71874   0.50368   0.27170   -0.223269           
         C         C         0.73409   0.47702   0.26801   -0.056820           
         C         C         0.76673   0.02973   0.27364   -0.054873           
         N         N         0.49909   0.46006   0.25769   -0.436850           
         N         N         0.44716   0.44985   0.25845   -0.386488           
         C         C         0.43960   0.47737   0.25517   0.329428  
         C         C         0.40955   0.48626   0.25506   -0.038506           
         C         C         0.40971   0.51660   0.25198   -0.039461           
         C         C         0.43986   0.52501   0.24677   0.325760  
         C         C         0.38413   0.53298   0.25228   -0.191232           
         C         C         0.35891   0.51688   0.25597   0.167920  
         C         C         0.35876   0.48654   0.25862   0.167710  
         C         C         0.38385   0.47024   0.25919   -0.189918           
         O         O         0.33033   0.47697   0.26187   -0.338794           
         B         B         0.31315   0.50194   0.26060   0.586266  
         O         O         0.33052   0.52676   0.25748   -0.340080           
         N         N         0.05131   0.44849   0.25039   -0.405449           
         C         C         0.05869   0.47586   0.24760   0.331198  
         N         N         0.04054   0.49986   0.24301   -0.406613           
         C         C         0.05883   0.52392   0.23899   0.333657  
         C         C         0.08878   0.51510   0.24153   -0.029763           
         C         C         0.08870   0.48489   0.24585   -0.030053           
         C         C         0.11428   0.46888   0.24953   -0.187653           
         C         C         0.13941   0.48524   0.24758   0.172587  
         C         C         0.13946   0.51540   0.24224   0.173656  
         C         C         0.11437   0.53139   0.23859   -0.186026           
         C         C         0.02392   0.55857   0.23223   0.308157  
         C         C         0.03131   0.61457   0.23692   -0.174714           
         C         C         0.01486   0.63996   0.24141   0.173423  
         N         N         0.05171   0.55131   0.23622   -0.407819           
         O         O         0.16775   0.47595   0.25117   -0.335372           
         B         B         0.18511   0.50091   0.24895   0.589282  
         C         C         0.21838   0.50142   0.25403   -0.227841           
         C         C         0.23414   0.52842   0.26230   -0.055643           
         C         C         0.26406   0.47515   0.25387   -0.057039           
         C         C         0.23386   0.47487   0.25077   -0.056597           
         O         O         0.16781   0.52529   0.24202   -0.335334           
         H         H         0.38432   0.55612   0.24791   0.147128  
         H         H         0.38386   0.44718   0.26449   0.147105  
         H         H         0.11424   0.55432   0.23196   0.149520  
         H         H         0.11410   0.44589   0.25554   0.149745  
         H         H         0.27569   0.45454   0.25239   0.105879  
         H         H         0.22202   0.45410   0.24762   0.105780  
         H         H         0.27622   0.54959   0.27024   0.105395  
         H         H         0.22252   0.54909   0.26442   0.105861  
         C         C         0.44162   0.97505   0.24486   0.328258  
         C         C         0.41141   0.98337   0.24393   -0.040048           
         C         C         0.36061   0.98274   0.24622   0.165651  
         C         C         0.38594   0.96664   0.24498   -0.188674           
         H         H         0.38629   0.94331   0.24728   0.147688  
         N         N         0.45930   -0.00055  0.24414   -0.395997           
         N         N         0.05250   0.94837   0.25454   -0.408786           
         C         C         0.06010   0.97580   0.25272   0.334004  
         N         N         0.04227   -0.00005  0.24815   -0.405910           
         C         C         0.41111   0.01403   0.24425   -0.039203           
         O         O         0.33187   0.02299   0.24901   -0.339924           
         B         B         0.31481   0.99780   0.25058   0.585501  
         O         O         0.33225   0.97275   0.24890   -0.338297           
         C         C         0.09021   0.98455   0.25183   -0.031152           
         C         C         0.09073   0.01477   0.24752   -0.027588           
         C         C         0.06085   0.02392   0.24434   0.330292  
         C         C         0.11669   0.03050   0.24441   -0.189215           
         C         C         0.14094   0.98395   0.25381   0.173333  
         C         C         0.11549   0.96813   0.25591   -0.186736           
         C         C         0.14151   0.01410   0.24845   0.173547  
         O         O         0.16907   0.97403   0.25692   -0.334882           
         B         B         0.18686   0.99854   0.25316   0.588225  
         C         C         0.22010   0.99835   0.25437   -0.227464           
         C         C         0.23599   0.02527   0.26263   -0.056578           
         C         C         0.26618   0.02507   0.26194   -0.057056           
         C         C         0.28151   0.99796   0.25316   -0.224167           
         C         C         0.26562   0.97112   0.24574   -0.057193           
         O         O         0.17006   0.02341   0.24795   -0.335489           
         H         H         0.38510   0.05335   0.24196   0.147765  
         H         H         0.11710   0.05336   0.23701   0.149769  
         H         H         0.11484   0.94515   0.26187   0.149754  
         H         H         0.27813   0.04587   0.26617   0.106470  
         H         H         0.22443   0.04625   0.26791   0.106376  
         H         H         0.27712   0.95015   0.24082   0.106120  
         H         H         0.22342   0.95055   0.24235   0.106264  
         C         C         0.27984   0.50201   0.26070   -0.222904           
         C         C         0.26435   0.52872   0.26579   -0.056776           
         C         C         0.23542   0.97132   0.24647   -0.055934           
         Co        Co        0.99926   0.49971   0.24313   0.640062  
         Co        Co        0.00099   0.00032   0.25004   0.640908  
         N         N         0.45765   0.50103   0.24981   -0.395072           
         N         N         0.44775   0.55220   0.24004   -0.385306           
         C         C         0.47530   0.55951   0.23665   0.325136  
         C         C         0.48466   0.58917   0.23120   -0.035715           
         C         C         0.51529   0.58961   0.23868   -0.036353           
         C         C         0.52395   0.55997   0.24456   0.325783  
         C         C         0.53216   0.61533   0.24354   -0.168544           
         C         C         0.51620   0.64047   0.24097   0.169971  
         C         C         0.48559   0.63981   0.23023   0.170246  
         C         C         0.46871   0.61429   0.22450   -0.168028           
         O         O         0.47629   0.66792   0.22711   -0.336178           
         B         B         0.50172   0.68582   0.23726   0.575949  
         O         O         0.52653   0.66904   0.24583   -0.335524           
         N         N         0.44963   0.94739   0.24517   -0.385275           
         C         C         0.47722   0.94064   0.24934   0.326760  
         N         N         0.50132   0.95932   0.25191   -0.437809           
         C         C         0.52581   0.94212   0.25681   0.326581  
         C         C         0.51719   0.91209   0.26011   -0.038579           
         C         C         0.48658   0.91099   0.25337   -0.038384           
         C         C         0.47048   0.88478   0.24883   -0.171576           
         C         C         0.48722   0.86004   0.25032   0.170879  
         C         C         0.51784   0.86128   0.25887   0.171531  
         C         C         0.53394   0.88733   0.26514   -0.170348           
         C         C         0.56061   0.97775   0.25248   0.327688  
         C         C         0.61621   0.97096   0.25563   -0.191084           
         C         C         0.64135   0.98738   0.25459   0.169499  
         N         N         0.55321   0.95015   0.25633   -0.386141           
         O         O         0.47769   0.83120   0.24537   -0.336726           
         B         B         0.50294   0.81483   0.25141   0.574349  
         C         C         0.50285   0.78138   0.24918   -0.214201           
         C         C         0.52881   0.76747   0.26954   -0.063112           
         C         C         0.47629   0.73294   0.21650   -0.063898           
         C         C         0.47657   0.76365   0.22303   -0.054570           
         O         O         0.52795   0.83319   0.25963   -0.337856           
         H         H         0.55569   0.61542   0.24926   0.153828  
         H         H         0.44518   0.61368   0.21538   0.153671  
         H         H         0.55747   0.88870   0.27377   0.152562  
         H         H         0.44694   0.88397   0.24372   0.154313  
         H         H         0.45592   0.71930   0.19487   0.110342  
         H         H         0.45646   0.77409   0.20542   0.109895  
         H         H         0.54863   0.72627   0.28024   0.109263  
         H         H         0.54919   0.78108   0.29077   0.109272  
         C         C         0.97512   0.55844   0.23266   0.307437  
         C         C         0.98412   0.58826   0.23319   -0.039884           
         C         C         0.98406   0.63969   0.24049   0.168666  
         C         C         0.96769   0.61410   0.23622   -0.175547           
         H         H         0.94414   0.61361   0.23408   0.153794  
         N         N         -0.00052  0.53998   0.22957   -0.414628           
         N         N         0.94815   0.94962   0.26258   -0.405530           
         C         C         0.97586   0.94178   0.26317   0.306482  
         N         N         0.00048   0.96004   0.26415   -0.415163           
         C         C         0.01498   0.58841   0.23313   -0.040070           
         O         O         0.02453   0.66865   0.24485   -0.338162           
         B         B         -0.00061  0.68574   0.24425   0.576744  
         O         O         0.97425   0.66809   0.24205   -0.337718           
         C         C         0.98452   0.91168   0.26056   -0.039188           
         C         C         0.01536   0.91125   0.25672   -0.040023           
         C         C         0.02464   0.94115   0.25826   0.311521  
         C         C         0.03153   0.88500   0.25085   -0.175069           
         C         C         0.98420   0.86015   0.25323   0.170864  
         C         C         0.96798   0.88587   0.25958   -0.177173           
         C         C         0.01497   0.85972   0.24864   0.171739  
         O         O         0.97429   0.83168   0.25187   -0.338308           
         B         B         -0.00065  0.81394   0.24664   0.576137  
         C         C         -0.00060  0.78066   0.24687   -0.211152           
         C         C         0.02573   0.76522   0.24682   -0.059408           
         C         C         0.02576   0.73483   0.24396   -0.059717           
         C         C         -0.00054  0.71895   0.24304   -0.213754           
         C         C         0.97318   0.73442   0.24340   -0.058457           
         O         O         0.02455   0.83098   0.24381   -0.338479           
         H         H         0.05486   0.61454   0.23532   0.152680  
         H         H         0.05507   0.88483   0.24845   0.152772  
         H         H         0.94443   0.88642   0.26475   0.153752  
         H         H         0.04622   0.72318   0.24413   0.109292  
         H         H         0.04613   0.77736   0.24837   0.109406  
         H         H         0.95275   0.72247   0.24328   0.110249  
         H         H         0.95271   0.77654   0.24638   0.110829  
         C         C         0.50222   0.71909   0.23754   -0.214656           
         C         C         0.52852   0.73676   0.26301   -0.055949           
         C         C         0.97316   0.76480   0.24591   -0.061329           
         N         N         0.54093   0.50115   0.25404   -0.393999           
         N         N         0.55084   0.44956   0.25894   -0.384831           
         C         C         0.52325   0.44199   0.25870   0.326812  
         C         C         0.51389   0.41204   0.26110   -0.039006           
         C         C         0.48329   0.41248   0.26344   -0.038520           
         C         C         0.47461   0.44236   0.26001   0.325880  
         C         C         0.46645   0.38726   0.26452   -0.171227           
         C         C         0.48240   0.36151   0.26042   0.171337  
         C         C         0.51300   0.36084   0.25611   0.171295  
         C         C         0.52984   0.38603   0.25790   -0.171779           
         O         O         0.52236   0.33206   0.25146   -0.337559           
         B         B         0.49701   0.31527   0.25464   0.573494  
         O         O         0.47212   0.33322   0.25941   -0.336596           
         N         N         0.55232   0.05269   0.23962   -0.386373           
         C         C         0.52470   0.05960   0.23627   0.326011  
         N         N         0.50059   0.04138   0.23884   -0.438717           
         C         C         0.47602   0.05893   0.23893   0.325200  
         C         C         0.48461   0.08892   0.23529   -0.036234           
         C         C         0.51525   0.08927   0.23231   -0.036002           
         C         C         0.53118   0.11495   0.22961   -0.169670           
         C         C         0.51436   0.14015   0.23326   0.171700  
         C         C         0.48375   0.13993   0.23836   0.170185  
         C         C         0.46779   0.11428   0.23761   -0.170040           
         C         C         0.44112   0.02328   0.24296   0.327250  
         C         C         0.38529   0.03003   0.24451   -0.190416           
         C         C         0.36035   0.01335   0.24637   0.167228  
         N         N         0.44860   0.05107   0.24174   -0.385274           
         O         O         0.52369   0.16861   0.23266   -0.338001           
         B         B         0.49826   0.18586   0.23850   0.576975  
         C         C         0.49775   0.21932   0.24025   -0.214386           
         C         C         0.47144   0.23640   0.26229   -0.057864           
         C         C         0.52331   0.26475   0.23091   -0.055356           
         C         C         0.52366   0.23399   0.22400   -0.063906           
         O         O         0.47345   0.16831   0.24208   -0.335432           
         H         H         0.44293   0.38798   0.26718   0.153270  
         H         H         0.55338   0.38569   0.25652   0.153606  
         H         H         0.44425   0.11367   0.23857   0.154207  
         H         H         0.55471   0.11493   0.22467   0.153270  
         H         H         0.54340   0.27577   0.21670   0.109322  
         H         H         0.54411   0.22096   0.20531   0.110255  
         H         H         0.45072   0.28030   0.28859   0.109309  
         H         H         0.45130   0.22539   0.27603   0.109723  
         C         C         0.02348   0.44093   0.25292   0.307958  
         C         C         0.01444   0.41102   0.25163   -0.041060           
         C         C         0.01453   0.35959   0.24494   0.168454  
         C         C         0.03085   0.38508   0.24780   -0.175699           
         H         H         0.05439   0.38538   0.24797   0.153263  
         N         N         0.99910   0.45945   0.25673   -0.413023           
         N         N         0.05387   0.05125   0.24074   -0.404934           
         C         C         0.02614   0.05884   0.23724   0.306637  
         N         N         0.00151   0.04046   0.23542   -0.413858           
         C         C         0.98359   0.41101   0.25344   -0.039496           
         O         O         0.97409   0.33063   0.24152   -0.337800           
         B         B         -0.00072  0.31349   0.24096   0.577307  
         O         O         0.02438   0.33118   0.24301   -0.339247           
         C         C         0.01736   0.08861   0.23666   -0.040315           
         C         C         0.98648   0.08857   0.23630   -0.040355           
         C         C         0.97726   0.05899   0.23796   0.306639  
         C         C         0.97019   0.11436   0.23783   -0.173830           
         C         C         0.01744   0.13992   0.24119   0.169593  
         C         C         0.03377   0.11465   0.23911   -0.174956           
         C         C         0.98665   0.13973   0.24049   0.172859  
         O         O         0.02718   0.16843   0.24197   -0.338736           
         B         B         0.00199   0.18556   0.24192   0.576541  
         C         C         0.00137   0.21862   0.23916   -0.212119           
         C         C         0.97469   0.23279   0.23182   -0.060054           
         C         C         0.97389   0.26309   0.23383   -0.058629           
         C         C         -0.00024  0.28017   0.24093   -0.212560           
         C         C         0.02640   0.26592   0.24716   -0.059598           
         O         O         0.97690   0.16803   0.24139   -0.337877           
         H         H         0.94372   0.38512   0.25444   0.152869  
         H         H         0.94663   0.11408   0.23622   0.152832  
         H         H         0.05733   0.11465   0.23860   0.152969  
         H         H         0.95316   0.27374   0.22812   0.109077  
         H         H         0.95459   0.21977   0.22571   0.109590  
         H         H         0.04649   0.27887   0.25225   0.110148  
         H         H         0.04794   0.22511   0.25253   0.110777  
         C         C         0.49702   0.28183   0.25304   -0.213096           
         C         C         0.47112   0.26719   0.26960   -0.061898           
         C         C         0.02720   0.23568   0.24610   -0.060621           
         Co        Co        0.50094   0.00029   0.24452   0.697336  
         Co        Co        0.49929   0.50092   0.24942   0.697448  
         N         N         0.49984   0.53923   0.73713   -0.410995           
         N         N         0.55221   0.55087   0.74926   -0.406231           
         C         C         0.55939   0.52366   0.75381   0.331727  
         C         C         0.58934   0.51476   0.75954   -0.029856           
         C         C         0.58878   0.48454   0.76392   -0.029990           
         C         C         0.55869   0.47555   0.76220   0.334553  
         C         C         0.61392   0.46807   0.76960   -0.187282           
         C         C         0.63945   0.48394   0.76945   0.172193  
         C         C         0.64020   0.51413   0.76446   0.173219  
         C         C         0.61546   0.53050   0.75821   -0.186482           
         O         O         0.66883   0.52336   0.76519   -0.335663           
         B         B         0.68546   0.49822   0.76919   0.588136  
         O         O         0.66752   0.47386   0.77298   -0.334229           
         N         N         0.94656   0.54998   0.74299   -0.384106           
         C         C         0.93937   0.52224   0.74580   0.324670  
         N         N         0.95784   0.49852   0.74629   -0.394861           
         C         C         0.94047   0.47408   0.74890   0.329361  
         C         C         0.91017   0.48226   0.75001   -0.040184           
         C         C         0.90949   0.51290   0.75001   -0.039498           
         C         C         0.88344   0.52866   0.75162   -0.189205           
         C         C         0.85872   0.51186   0.75548   0.167819  
         C         C         0.85939   0.48125   0.75521   0.165953  
         C         C         0.88492   0.46533   0.75240   -0.189375           
         C         C         0.97641   0.43956   0.74898   0.325502  
         C         C         0.97105   0.38344   0.75035   -0.172564           
         C         C         0.98854   0.35871   0.74703   0.170964  
         N         N         0.94870   0.44640   0.74882   -0.386209           
         O         O         0.83013   0.52120   0.75898   -0.339280           
         B         B         0.81341   0.49580   0.76036   0.585733  
         C         C         0.78012   0.49590   0.76326   -0.224143           
         C         C         0.76396   0.46909   0.75407   -0.057899           
         C         C         0.73489   0.52407   0.77727   -0.056192           
         C         C         0.76506   0.52340   0.77513   -0.057360           
         O         O         0.83117   0.47094   0.75843   -0.338694           
         H         H         0.61306   0.44509   0.77566   0.150120  
         H         H         0.61607   0.55330   0.75009   0.149438  
         H         H         0.88562   0.44197   0.75438   0.148056  
         H         H         0.88287   0.55195   0.74869   0.147468  
         H         H         0.72360   0.54536   0.78444   0.106484  
         H         H         0.77726   0.54414   0.78052   0.106660  
         H         H         0.72158   0.44899   0.75096   0.106383  
         H         H         0.77526   0.44773   0.74587   0.106268  
         C         C         0.55894   0.02357   0.74335   0.333897  
         C         C         0.58900   0.01542   0.74796   -0.031063           
         C         C         0.63968   0.01701   0.75117   0.171746  
         C         C         0.61426   0.03236   0.74643   -0.184784           
         H         H         0.61362   0.05532   0.74009   0.149561  
         N         N         0.54100   -0.00066  0.74816   -0.407798           
         N         N         0.94951   0.05394   0.74836   -0.386215           
         C         C         0.94085   0.02683   0.75377   0.326716  
         N         N         0.95798   0.00214   0.75399   -0.393568           
         C         C         0.58943   0.98527   0.75298   -0.030508           
         O         O         0.66877   0.97805   0.75913   -0.336885           
         B         B         0.68561   0.00335   0.75667   0.589435  
         O         O         0.66784   0.02752   0.75138   -0.334565           
         C         C         0.91047   0.01941   0.76073   -0.040051           
         C         C         0.90952   0.98893   0.76247   -0.037330           
         C         C         0.93930   0.97893   0.75949   0.325042  
         C         C         0.88339   0.97364   0.76701   -0.191549           
         C         C         0.85964   0.02113   0.76552   0.166134  
         C         C         0.88531   0.03661   0.76230   -0.190021           
         C         C         0.85877   0.99073   0.76757   0.168681  
         O         O         0.83143   0.03161   0.76610   -0.339453           
         B         B         0.81355   0.00702   0.76806   0.585560  
         C         C         0.78026   0.00674   0.76655   -0.223692           
         C         C         0.76518   0.97894   0.75344   -0.058167           
         C         C         0.73499   0.97782   0.75022   -0.055766           
         C         C         0.71886   0.00452   0.76009   -0.227374           
         C         C         0.73394   0.03232   0.77310   -0.056416           
         O         O         0.83014   0.98175   0.76991   -0.338238           
         H         H         0.61566   0.94693   0.76399   0.149633  
         H         H         0.88273   0.95039   0.77033   0.147876  
         H         H         0.88608   0.05986   0.75904   0.147518  
         H         H         0.72369   0.95621   0.74091   0.106604  
         H         H         0.77741   0.95824   0.74682   0.106623  
         H         H         0.72175   0.05297   0.77882   0.105536  
         H         H         0.77546   0.05494   0.78443   0.105996  
         C         C         0.71870   0.49729   0.76798   -0.226178           
         C         C         0.73375   0.46979   0.75667   -0.056224           
         C         C         0.76414   0.03344   0.77627   -0.056547           
         N         N         0.49907   0.45915   0.76914   -0.416154           
         N         N         0.44679   0.44814   0.76353   -0.406775           
         C         C         0.43972   0.47530   0.75830   0.333527  
         C         C         0.40977   0.48427   0.75603   -0.030138           
         C         C         0.40998   0.51435   0.75019   -0.029504           
         C         C         0.44006   0.52299   0.74543   0.333254  
         C         C         0.38441   0.53049   0.74746   -0.186230           
         C         C         0.35920   0.51453   0.75239   0.172422  
         C         C         0.35899   0.48444   0.75829   0.173754  
         C         C         0.38406   0.46823   0.76021   -0.187700           
         O         O         0.33055   0.47501   0.76161   -0.335594           
         B         B         0.31343   0.49982   0.75803   0.589456  
         O         O         0.33092   0.52426   0.75139   -0.335624           
         N         N         0.05218   0.44932   0.74513   -0.384704           
         C         C         0.05924   0.47731   0.74514   0.326422  
         N         N         0.04103   0.50100   0.74360   -0.394783           
         C         C         0.05868   0.52547   0.74234   0.328820  
         C         C         0.08902   0.51723   0.74474   -0.039163           
         C         C         0.08911   0.48663   0.74520   -0.040595           
         C         C         0.11451   0.47036   0.74791   -0.190293           
         C         C         0.13973   0.48667   0.74815   0.167633  
         C         C         0.13998   0.51722   0.74757   0.167975  
         C         C         0.11492   0.53357   0.74541   -0.190912           
         C         C         0.02256   0.55961   0.73895   0.325367  
         C         C         0.02831   0.61553   0.73689   -0.172317           
         C         C         0.01114   0.64039   0.73932   0.170921  
         N         N         0.05032   0.55293   0.74076   -0.387115           
         O         O         0.16794   0.47681   0.75022   -0.338344           
         B         B         0.18553   0.50187   0.75149   0.586818  
         C         C         0.21881   0.50151   0.75453   -0.226002           
         C         C         0.23518   0.52820   0.76383   -0.054685           
         C         C         0.26381   0.47376   0.75077   -0.055361           
         C         C         0.23362   0.47429   0.74805   -0.056858           
         O         O         0.16860   0.52695   0.74962   -0.340916           
         H         H         0.38452   0.55333   0.73984   0.149047  
         H         H         0.38415   0.44527   0.76649   0.149447  
         H         H         0.11514   0.55693   0.74309   0.147987  
         H         H         0.11412   0.44718   0.75200   0.147738  
         H         H         0.27493   0.45272   0.74765   0.105739  
         H         H         0.22124   0.45360   0.74220   0.105937  
         H         H         0.27774   0.54825   0.77123   0.105729  
         H         H         0.22404   0.54923   0.76694   0.105898  
         C         C         0.44030   0.97387   0.74771   0.332231  
         C         C         0.41020   0.98228   0.74519   -0.029109           
         C         C         0.35947   0.98145   0.74763   0.172486  
         C         C         0.38484   0.96553   0.74741   -0.187606           
         H         H         0.38535   0.94232   0.75100   0.149896  
         N         N         0.45824   0.99835   0.74559   -0.406285           
         N         N         0.04965   0.94704   0.74989   -0.387427           
         C         C         0.05831   0.97463   0.75013   0.329175  
         N         N         0.04115   0.99911   0.74827   -0.394080           
         C         C         0.40985   0.01275   0.74344   -0.028846           
         O         O         0.33057   0.02135   0.74807   -0.335945           
         B         B         0.31359   0.99613   0.75037   0.588755  
         O         O         0.33126   0.97138   0.75068   -0.334096           
         C         C         0.08870   0.98270   0.74992   -0.039661           
         C         C         0.08961   0.01323   0.74905   -0.039550           
         C         C         0.05987   0.02270   0.74708   0.324663  
         C         C         0.11562   0.02907   0.74857   -0.190220           
         C         C         0.13948   0.98176   0.75093   0.165859  
         C         C         0.11391   0.96593   0.75171   -0.189959           
         C         C         0.14029   0.01226   0.74990   0.168278  
         O         O         0.16766   0.97145   0.75152   -0.339519           
         B         B         0.18555   0.99614   0.75046   0.586028  
         C         C         0.21885   0.99586   0.75053   -0.224441           
         C         C         0.23464   0.02269   0.75704   -0.057717           
         C         C         0.26483   0.02271   0.75747   -0.055382           
         C         C         0.28031   0.99592   0.75154   -0.227572           
         C         C         0.26451   0.96908   0.74488   -0.055880           
         O         O         0.16891   0.02150   0.74966   -0.339113           
         H         H         0.38370   0.05180   0.73912   0.150122  
         H         H         0.11604   0.05234   0.74546   0.147862  
         H         H         0.11322   0.94277   0.75582   0.147743  
         H         H         0.27672   0.04341   0.76018   0.106250  
         H         H         0.22303   0.04340   0.75948   0.106469  
         H         H         0.27607   0.94826   0.74151   0.105513  
         H         H         0.22237   0.94823   0.74001   0.106352  
         C         C         0.28018   0.50039   0.75923   -0.228093           
         C         C         0.26536   0.52763   0.76608   -0.056657           
         C         C         0.23430   0.96904   0.74420   -0.057524           
         Co        Co        -0.00060  0.49975   0.74458   0.696311  
         Co        Co        -0.00045  0.00052   0.74984   0.697755  
         N         N         0.45810   0.49910   0.75176   -0.407240           
         N         N         0.44762   0.54987   0.73791   -0.407750           
         C         C         0.47550   0.55714   0.73364   0.303243  
         C         C         0.48464   0.58660   0.73018   -0.041114           
         C         C         0.51551   0.58732   0.73752   -0.038545           
         C         C         0.52441   0.55790   0.74154   0.304354  
         C         C         0.53185   0.61366   0.74311   -0.176034           
         C         C         0.51549   0.63845   0.74040   0.170660  
         C         C         0.48473   0.63743   0.73009   0.172739  
         C         C         0.46833   0.61176   0.72458   -0.174553           
         O         O         0.47505   0.66544   0.72667   -0.338398           
         B         B         0.50025   0.68368   0.73593   0.574668  
         O         O         0.52528   0.66717   0.74437   -0.338205           
         N         N         0.44785   0.94658   0.75012   -0.406008           
         C         C         0.47572   0.93977   0.75636   0.309382  
         N         N         0.50004   0.95880   0.76271   -0.414588           
         C         C         0.52458   0.94081   0.76325   0.306316  
         C         C         0.51566   0.91086   0.76262   -0.039187           
         C         C         0.48480   0.91012   0.75662   -0.040826           
         C         C         0.46837   0.88373   0.74933   -0.173600           
         C         C         0.48468   0.85861   0.74870   0.169985  
         C         C         0.51545   0.85953   0.75752   0.171169  
         C         C         0.53193   0.88533   0.76464   -0.175008           
         C         C         0.55949   0.97578   0.75491   0.332803  
         C         C         0.61538   0.96987   0.75733   -0.186524           
         C         C         0.64022   0.98678   0.75587   0.172869  
         N         N         0.55238   0.94861   0.76083   -0.407135           
         O         O         0.47486   0.82970   0.74241   -0.336227           
         B         B         0.49994   0.81303   0.74858   0.578050  
         C         C         0.49991   0.77951   0.74664   -0.211755           
         C         C         0.52605   0.76607   0.76844   -0.065128           
         C         C         0.47418   0.73054   0.71420   -0.064295           
         C         C         0.47393   0.76120   0.72000   -0.055948           
         O         O         0.52512   0.83127   0.75813   -0.339584           
         H         H         0.55540   0.61428   0.74852   0.153023  
         H         H         0.44480   0.61078   0.71533   0.152584  
         H         H         0.55548   0.88607   0.77222   0.152866  
         H         H         0.44482   0.88350   0.74525   0.153495  
         H         H         0.45402   0.71648   0.69160   0.109641  
         H         H         0.45358   0.77107   0.70085   0.109432  
         H         H         0.54668   0.72551   0.78114   0.108725  
         H         H         0.54623   0.78006   0.79011   0.109899  
         C         C         0.97387   0.55819   0.73970   0.324937  
         C         C         0.98208   0.58834   0.73654   -0.038069           
         C         C         0.98052   0.63942   0.74034   0.171852  
         C         C         0.96492   0.61337   0.73759   -0.169588           
         H         H         0.94138   0.61219   0.73562   0.153135  
         N         N         0.99868   0.54098   0.74027   -0.435671           
         N         N         0.94608   0.95090   0.75969   -0.383901           
         C         C         0.97329   0.94221   0.75747   0.326422  
         N         N         0.99819   0.95931   0.75412   -0.438063           
         C         C         0.01272   0.58932   0.73636   -0.036254           
         O         O         0.02008   0.66912   0.74036   -0.339223           
         B         B         0.99444   0.68573   0.74228   0.576098  
         O         O         0.96984   0.66758   0.74274   -0.336867           
         C         C         0.98135   0.91182   0.75804   -0.036699           
         C         C         0.01195   0.91075   0.75394   -0.037782           
         C         C         0.02187   0.94046   0.75191   0.326743  
         C         C         0.02777   0.88468   0.75089   -0.172154           
         C         C         0.98015   0.86063   0.75332   0.173077  
         C         C         0.96435   0.88664   0.75890   -0.171352           
         C         C         0.01077   0.85975   0.75033   0.169344  
         O         O         0.96969   0.83233   0.75134   -0.336326           
         B         B         0.99439   0.81433   0.74873   0.574441  
         C         C         0.99390   0.78096   0.74794   -0.211926           
         C         C         0.02015   0.76536   0.74658   -0.059675           
         C         C         0.02013   0.73494   0.74361   -0.061127           
         C         C         0.99387   0.71904   0.74216   -0.212587           
         C         C         0.96757   0.73455   0.74229   -0.058978           
         O         O         0.01993   0.83113   0.74827   -0.337611           
         H         H         0.05187   0.61622   0.73539   0.154009  
         H         H         0.05133   0.88427   0.74901   0.153996  
         H         H         0.94082   0.88756   0.76390   0.153117  
         H         H         0.04055   0.72322   0.74364   0.110514  
         H         H         0.04059   0.77736   0.74727   0.110134  
         H         H         0.94711   0.72249   0.74069   0.108887  
         H         H         0.94718   0.77693   0.74764   0.109217  
         C         C         0.50032   0.71711   0.73648   -0.211025           
         C         C         0.52630   0.73539   0.76277   -0.054289           
         C         C         0.96759   0.76507   0.74649   -0.060860           
         N         N         0.54083   0.49954   0.75631   -0.407158           
         N         N         0.55119   0.44805   0.76336   -0.407901           
         C         C         0.52334   0.44053   0.76509   0.310234  
         C         C         0.51422   0.41060   0.76353   -0.040872           
         C         C         0.48337   0.41081   0.76647   -0.039011           
         C         C         0.47455   0.44071   0.76737   0.308441  
         C         C         0.46692   0.38500   0.76600   -0.174554           
         C         C         0.48326   0.35945   0.76070   0.170598  
         C         C         0.51404   0.35913   0.75587   0.170656  
         C         C         0.53052   0.38447   0.75805   -0.175038           
         O         O         0.52375   0.33041   0.75068   -0.337785           
         B         B         0.49863   0.31323   0.75338   0.579109  
         O         O         0.47349   0.33094   0.75956   -0.339102           
         N         N         0.55144   0.05055   0.73755   -0.407932           
         C         C         0.52357   0.05742   0.73282   0.304262  
         N         N         0.49923   0.03899   0.73285   -0.412520           
         C         C         0.47473   0.05731   0.73528   0.306913  
         C         C         0.48371   0.08698   0.73331   -0.039418           
         C         C         0.51457   0.08687   0.73056   -0.041075           
         C         C         0.53118   0.11239   0.72947   -0.176154           
         C         C         0.51500   0.13785   0.73336   0.172821  
         C         C         0.48421   0.13816   0.73707   0.170629  
         C         C         0.46758   0.11302   0.73616   -0.175213           
         C         C         0.43979   0.02222   0.74187   0.332001  
         C         C         0.38396   0.02857   0.74265   -0.187186           
         C         C         0.35907   0.01193   0.74582   0.173421  
         N         N         0.44695   0.04969   0.73929   -0.406110           
         O         O         0.52494   0.16619   0.73369   -0.337555           
         B         B         0.49987   0.18386   0.73790   0.575502  
         C         C         0.49968   0.21731   0.73958   -0.214365           
         C         C         0.47338   0.23438   0.76145   -0.053782           
         C         C         0.52522   0.26265   0.72932   -0.056515           
         C         C         0.52558   0.23192   0.72275   -0.062243           
         O         O         0.47468   0.16676   0.74008   -0.338307           
         H         H         0.44337   0.38551   0.77108   0.153420  
         H         H         0.55408   0.38442   0.75602   0.153604  
         H         H         0.44403   0.11323   0.73733   0.153325  
         H         H         0.55472   0.11175   0.72537   0.153007  
         H         H         0.54530   0.27367   0.71506   0.108913  
         H         H         0.54603   0.21892   0.70442   0.109581  
         H         H         0.45260   0.27812   0.78620   0.110117  
         H         H         0.45328   0.22344   0.77624   0.109397  
         C         C         0.02492   0.44103   0.74686   0.326915  
         C         C         0.01694   0.41082   0.74888   -0.037725           
         C         C         0.01915   0.35993   0.74524   0.171077  
         C         C         0.03446   0.38600   0.74692   -0.171453           
         H         H         0.05798   0.38724   0.74639   0.153142  
         N         N         0.00016   0.45832   0.74764   -0.437205           
         N         N         0.05311   0.05054   0.74548   -0.382584           
         C         C         0.02589   0.05874   0.74359   0.323490  
         N         N         0.00092   0.04162   0.74512   -0.436653           
         C         C         0.98634   0.40976   0.75038   -0.035827           
         O         O         0.97993   0.32990   0.74597   -0.338218           
         B         B         0.00580   0.31356   0.74328   0.575519  
         O         O         0.03017   0.33191   0.74236   -0.335851           
         C         C         0.01810   0.08879   0.73993   -0.037215           
         C         C         0.98750   0.08968   0.73835   -0.037830           
         C         C         0.97730   0.06026   0.74333   0.326990  
         C         C         0.97229   0.11564   0.73627   -0.170318           
         C         C         0.02045   0.13960   0.74205   0.172325  
         C         C         0.03571   0.11369   0.74112   -0.170320           
         C         C         0.98984   0.14044   0.73916   0.170902  
         O         O         0.03149   0.16771   0.74431   -0.335903           
         B         B         0.00707   0.18563   0.74165   0.575349  
         C         C         0.00754   0.21871   0.73973   -0.213889           
         C         C         0.98111   0.23327   0.73319   -0.060266           
         C         C         0.98079   0.26364   0.73588   -0.061060           
         C         C         0.00687   0.28036   0.74380   -0.212806           
         C         C         0.03334   0.26574   0.74997   -0.059763           
         O         O         0.98125   0.16898   0.73878   -0.338142           
         H         H         0.94752   0.38253   0.75312   0.154875  
         H         H         0.94876   0.11607   0.73176   0.154025  
         H         H         0.05923   0.11259   0.74160   0.153367  
         H         H         0.96025   0.27461   0.72987   0.111257  
         H         H         0.96084   0.22049   0.72650   0.111074  
         H         H         0.05365   0.27845   0.75637   0.108744  
         H         H         0.05420   0.22416   0.75124   0.109059  
         C         C         0.49892   0.27974   0.75133   -0.212894           
         C         C         0.47303   0.26510   0.76786   -0.064672           
         C         C         0.03368   0.23532   0.74677   -0.059506           
         Co        Co        0.49963   0.99897   0.74821   0.641934  
         Co        Co        0.49946   0.49935   0.75407   0.642793 

