
##########################################################################
#               Crystallographic Information Format file
#               Produced by PyCifRW module
#
#  This is a CIF file.  CIF has been adopted by the International
#  Union of Crystallography as the standard for data archiving and
#  transmission.
#
#  For information on this file format, follow the CIF links at
#  http://www.iucr.org
##########################################################################

data_image0

_cell_length_a                          46.2441
_cell_length_b                          46.2491
_cell_length_c                          7.87287
_cell_angle_alpha                       120.818
_cell_angle_beta                        91.3218
_cell_angle_gamma                       90.2962
_symmetry_space_group_name_H-M          'P 1'
_space_group_name_Hall                  'P 1'
loop_
  _atom_site_type_symbol
  _atom_site_label
  _atom_site_fract_x
  _atom_site_fract_y
  _atom_site_fract_z
  _atom_site_charge
         N         N         0.49934   0.54240   0.23647   -0.473573           
         N         N         0.55121   0.55298   0.25085   -0.379930           
         C         C         0.55918   0.52589   0.25613   0.342433  
         C         C         0.58936   0.51760   0.26257   -0.038044           
         C         C         0.58930   0.48737   0.26647   -0.036063           
         C         C         0.55909   0.47806   0.26323   0.342801  
         C         C         0.61483   0.47169   0.27273   -0.190352           
         C         C         0.63993   0.48810   0.27210   0.171422  
         C         C         0.63996   0.51813   0.26696   0.169134  
         C         C         0.61491   0.53399   0.26218   -0.189948           
         O         O         0.66824   0.52796   0.26613   -0.337130           
         B         B         0.68548   0.50351   0.27189   0.587440  
         O         O         0.66822   0.47882   0.27628   -0.337294           
         N         N         0.94757   0.55127   0.23837   -0.380297           
         C         C         0.93941   0.52399   0.24174   0.341404  
         N         N         0.95668   0.49996   0.24404   -0.438337           
         C         C         0.93911   0.47617   0.24902   0.341858  
         C         C         0.90893   0.48532   0.25056   -0.036887           
         C         C         0.90920   0.51550   0.24585   -0.037168           
         C         C         0.88391   0.53196   0.24480   -0.190345           
         C         C         0.85864   0.51630   0.25020   0.169586  
         C         C         0.85828   0.48646   0.25739   0.170235  
         C         C         0.88316   0.46993   0.25801   -0.189168           
         C         C         0.97472   0.44077   0.25124   0.329037  
         C         C         0.96741   0.38419   0.24243   -0.179013           
         C         C         0.98381   0.35876   0.23716   0.173436  
         N         N         0.94715   0.44876   0.25060   -0.380264           
         O         O         0.83048   0.52643   0.25103   -0.337965           
         B         B         0.81298   0.50249   0.26161   0.587291  
         C         C         0.77983   0.50321   0.26692   -0.225491           
         C         C         0.76419   0.47766   0.27403   -0.057524           
         C         C         0.73430   0.52931   0.26600   -0.058299           
         C         C         0.76440   0.52910   0.26339   -0.055537           
         O         O         0.82989   0.47770   0.26600   -0.337369           
         H         H         0.61473   0.44877   0.27916   0.148651  
         H         H         0.61485   0.55692   0.25605   0.148690  
         H         H         0.88289   0.44719   0.26645   0.148292  
         H         H         0.88434   0.55491   0.23883   0.148399  
         H         H         0.72263   0.54930   0.26155   0.105665  
         H         H         0.77618   0.54892   0.25672   0.105966  
         H         H         0.72235   0.45805   0.28340   0.105796  
         H         H         0.77586   0.45773   0.27906   0.105876  
         C         C         0.56073   0.02557   0.24352   0.341251  
         C         C         0.59105   0.01739   0.24819   -0.037432           
         C         C         0.64171   0.01784   0.25125   0.170858  
         C         C         0.61661   0.03376   0.24737   -0.190776           
         H         H         0.61655   0.05676   0.24185   0.148846  
         N         N         0.54350   0.00135   0.24637   -0.439322           
         N         N         0.94984   0.05246   0.24864   -0.380772           
         C         C         0.94149   0.02542   0.25408   0.341618  
         N         N         0.95867   0.00115   0.25472   -0.440225           
         C         C         0.59119   0.98715   0.25214   -0.035906           
         O         O         0.66999   0.97832   0.25838   -0.337796           
         B         B         0.68727   0.00310   0.25512   0.588347  
         O         O         0.67003   0.02761   0.25023   -0.337827           
         C         C         0.91125   0.01718   0.26049   -0.035913           
         C         C         0.91096   0.98680   0.26282   -0.037394           
         C         C         0.94103   0.97746   0.25973   0.343041  
         C         C         0.88532   0.97097   0.26770   -0.189491           
         C         C         0.86066   0.01774   0.26594   0.170166  
         C         C         0.88584   0.03365   0.26137   -0.189785           
         C         C         0.86039   0.98753   0.26902   0.171001  
         O         O         0.83247   0.02764   0.26612   -0.338232           
         B         B         0.81498   0.00301   0.26933   0.586857  
         C         C         0.78176   0.00308   0.26629   -0.225111           
         C         C         0.76569   0.97651   0.25923   -0.055635           
         C         C         0.73557   0.97660   0.25556   -0.057194           
         C         C         0.72049   0.00321   0.25810   -0.225690           
         C         C         0.73655   0.02975   0.26464   -0.056423           
         O         O         0.83201   0.97825   0.27327   -0.338744           
         H         H         0.61658   0.94833   0.26203   0.147991  
         H         H         0.88525   0.94783   0.27157   0.148497  
         H         H         0.88606   0.05667   0.25611   0.148645  
         H         H         0.72344   0.95605   0.25194   0.105482  
         H         H         0.77700   0.95583   0.25802   0.105743  
         H         H         0.72523   0.05034   0.26488   0.105928  
         H         H         0.77879   0.05031   0.27307   0.105918  
         C         C         0.71866   0.50362   0.27193   -0.226178           
         C         C         0.73410   0.47784   0.27646   -0.056674           
         C         C         0.76668   0.02970   0.26897   -0.056461           
         N         N         0.49922   0.45977   0.26438   -0.470722           
         N         N         0.44737   0.44987   0.25804   -0.379664           
         C         C         0.43938   0.47702   0.25318   0.342319  
         C         C         0.40924   0.48580   0.25237   -0.038102           
         C         C         0.40927   0.51592   0.24708   -0.036672           
         C         C         0.43947   0.52456   0.24258   0.340611  
         C         C         0.38371   0.53198   0.24570   -0.189794           
         C         C         0.35867   0.51586   0.25050   0.169230  
         C         C         0.35867   0.48587   0.25605   0.170209  
         C         C         0.38376   0.46981   0.25793   -0.189090           
         O         O         0.33041   0.47638   0.26096   -0.337499           
         B         B         0.31318   0.50100   0.25738   0.588025  
         O         O         0.33038   0.52546   0.25032   -0.338541           
         N         N         0.05083   0.44901   0.24854   -0.378735           
         C         C         0.05905   0.47632   0.24566   0.339877  
         N         N         0.04170   0.50023   0.24223   -0.439313           
         C         C         0.05920   0.52427   0.23955   0.340928  
         C         C         0.08938   0.51550   0.24115   -0.036863           
         C         C         0.08927   0.48520   0.24443   -0.035247           
         C         C         0.11477   0.46926   0.24821   -0.190674           
         C         C         0.13993   0.48554   0.24719   0.169384  
         C         C         0.14008   0.51562   0.24281   0.169304  
         C         C         0.11503   0.53163   0.23922   -0.188199           
         C         C         0.02361   0.55953   0.23556   0.328634  
         C         C         0.03086   0.61611   0.24416   -0.177638           
         C         C         0.01441   0.64144   0.24903   0.172146  
         N         N         0.05117   0.55167   0.23771   -0.379581           
         O         O         0.16819   0.47611   0.25138   -0.337963           
         B         B         0.18555   0.50089   0.24886   0.587872  
         C         C         0.21875   0.50115   0.25336   -0.227346           
         C         C         0.23463   0.52744   0.25578   -0.055812           
         C         C         0.26412   0.47503   0.25774   -0.058130           
         C         C         0.23400   0.47501   0.25508   -0.056195           
         O         O         0.16846   0.52535   0.24230   -0.336983           
         H         H         0.38369   0.55487   0.23912   0.148324  
         H         H         0.38393   0.44705   0.26599   0.148419  
         H         H         0.11507   0.55460   0.23349   0.148157  
         H         H         0.11459   0.44628   0.25377   0.148303  
         H         H         0.27558   0.45477   0.26037   0.106446  
         H         H         0.22203   0.45474   0.25574   0.106174  
         H         H         0.27672   0.54775   0.25831   0.106189  
         H         H         0.22317   0.54774   0.25344   0.105975  
         C         C         0.44142   0.97514   0.24448   0.340444  
         C         C         0.41113   0.98352   0.24417   -0.036211           
         C         C         0.36050   0.98292   0.24716   0.169764  
         C         C         0.38579   0.96692   0.24619   -0.188932           
         H         H         0.38616   0.94369   0.24911   0.148565  
         N         N         0.45858   -0.00052  0.24255   -0.438641           
         N         N         0.05229   0.94869   0.25168   -0.379284           
         C         C         0.06061   0.97609   0.25000   0.340429  
         N         N         0.04349   0.00029   0.24813   -0.438754           
         C         C         0.41079   0.01407   0.24384   -0.035924           
         O         O         0.33180   0.02296   0.24969   -0.337865           
         B         B         0.31485   0.99786   0.25215   0.587654  
         O         O         0.33230   0.97295   0.25065   -0.337482           
         C         C         0.09087   0.98468   0.24876   -0.036241           
         C         C         0.09133   0.01512   0.24723   -0.037060           
         C         C         0.06122   0.02424   0.24609   0.341927  
         C         C         0.11720   0.03093   0.24571   -0.189891           
         C         C         0.14145   0.98409   0.24968   0.170059  
         C         C         0.11608   0.96815   0.25041   -0.190207           
         C         C         0.14199   0.01438   0.24767   0.169271  
         O         O         0.16954   0.97406   0.25174   -0.336682           
         B         B         0.18724   0.99873   0.25067   0.586764  
         C         C         0.22043   0.99850   0.25336   -0.224981           
         C         C         0.23640   0.02498   0.25881   -0.057340           
         C         C         0.26650   0.02474   0.25946   -0.056693           
         C         C         0.28167   0.99801   0.25474   -0.225629           
         C         C         0.26569   0.97161   0.25039   -0.058028           
         O         O         0.17047   0.02370   0.24697   -0.337337           
         H         H         0.38477   0.05325   0.24216   0.148363  
         H         H         0.11760   0.05401   0.24129   0.148486  
         H         H         0.11553   0.94498   0.25388   0.148354  
         H         H         0.27854   0.04522   0.26181   0.106534  
         H         H         0.22499   0.04569   0.26093   0.106541  
         H         H         0.27708   0.95094   0.24872   0.106500  
         H         H         0.22355   0.95139   0.24798   0.106070  
         C         C         0.28000   0.50118   0.25876   -0.225111           
         C         C         0.26474   0.52745   0.25850   -0.056989           
         C         C         0.23558   0.97185   0.24984   -0.055983           
         Cu        Cu        0.99921   0.50005   0.24271   0.727061  
         Cu        Cu        0.00108   0.00064   0.25059   0.727960  
         N         N         0.45685   0.50077   0.24729   -0.438866           
         N         N         0.44759   0.55155   0.23556   -0.381176           
         C         C         0.47514   0.55958   0.23322   0.327771  
         C         C         0.48426   0.58969   0.23210   -0.036499           
         C         C         0.51492   0.59028   0.24001   -0.038713           
         C         C         0.52368   0.56037   0.24256   0.329081  
         C         C         0.53148   0.61648   0.24887   -0.177055           
         C         C         0.51538   0.64148   0.24727   0.169839  
         C         C         0.48484   0.64078   0.23660   0.169425  
         C         C         0.46821   0.61513   0.22964   -0.177002           
         O         O         0.47552   0.66888   0.23350   -0.342116           
         B         B         0.50084   0.68668   0.24302   0.579186  
         O         O         0.52553   0.67000   0.25213   -0.338156           
         N         N         0.44984   0.94788   0.24640   -0.379067           
         C         C         0.47750   0.94068   0.25122   0.326721  
         N         N         0.50156   0.95902   0.25666   -0.471277           
         C         C         0.52598   0.94212   0.25851   0.330937  
         C         C         0.51744   0.91178   0.25810   -0.039320           
         C         C         0.48680   0.91074   0.25178   -0.039237           
         C         C         0.47077   0.88423   0.24320   -0.177778           
         C         C         0.48742   0.85939   0.24251   0.171244  
         C         C         0.51799   0.86054   0.25048   0.171254  
         C         C         0.53408   0.88654   0.25818   -0.176625           
         C         C         0.56112   0.97790   0.25245   0.341903  
         C         C         0.61670   0.97132   0.25644   -0.190055           
         C         C         0.64174   0.98772   0.25527   0.170083  
         N         N         0.55342   0.95065   0.25758   -0.379635           
         O         O         0.47788   0.83057   0.23698   -0.339242           
         B         B         0.50308   0.81421   0.24300   0.577474  
         C         C         0.50284   0.78106   0.24359   -0.214661           
         C         C         0.52854   0.76751   0.27076   -0.062971           
         C         C         0.47598   0.73312   0.21242   -0.064748           
         C         C         0.47654   0.76337   0.21470   -0.055525           
         O         O         0.52802   0.83243   0.25055   -0.339870           
         H         H         0.55496   0.61692   0.25561   0.152744  
         H         H         0.44472   0.61441   0.22115   0.151357  
         H         H         0.55758   0.88766   0.26537   0.152099  
         H         H         0.44728   0.88345   0.23864   0.152315  
         H         H         0.45560   0.71950   0.18848   0.109463  
         H         H         0.45662   0.77351   0.19190   0.109011  
         H         H         0.54792   0.72710   0.29104   0.109381  
         H         H         0.54893   0.78109   0.29460   0.109422  
         C         C         0.97511   0.55926   0.23571   0.330753  
         C         C         0.98403   0.58966   0.23815   -0.037893           
         C         C         0.98386   0.64110   0.24822   0.168925  
         C         C         0.96761   0.61546   0.24348   -0.178156           
         H         H         0.94413   0.61495   0.24215   0.151812  
         N         N         -0.00066  0.54165   0.23233   -0.472871           
         N         N         0.94880   0.94990   0.26052   -0.381338           
         C         C         0.97625   0.94154   0.25957   0.326549  
         N         N         0.00068   0.95896   0.26034   -0.470158           
         C         C         0.01467   0.58988   0.23814   -0.036705           
         O         O         0.02411   0.67006   0.25241   -0.339817           
         B         B         0.99895   0.68697   0.25157   0.579110  
         O         O         0.97399   0.66940   0.24997   -0.340666           
         C         C         0.98488   0.91103   0.25615   -0.038274           
         C         C         0.01549   0.91061   0.25277   -0.037659           
         C         C         0.02470   0.94093   0.25499   0.331923  
         C         C         0.03151   0.88434   0.24504   -0.177465           
         C         C         0.98438   0.85945   0.24499   0.171660  
         C         C         0.96831   0.88526   0.25250   -0.178649           
         C         C         0.01491   0.85901   0.24140   0.170580  
         O         O         0.97429   0.83106   0.24258   -0.341425           
         B         B         0.99918   0.81343   0.23919   0.577936  
         C         C         0.99900   0.78053   0.24282   -0.211861           
         C         C         0.02517   0.76528   0.24569   -0.057862           
         C         C         0.02507   0.73537   0.24722   -0.060576           
         C         C         0.99883   0.71981   0.24764   -0.214426           
         C         C         0.97267   0.73506   0.24517   -0.059273           
         O         O         0.02439   0.83034   0.23693   -0.339887           
         H         H         0.05434   0.61629   0.24352   0.151725  
         H         H         0.05499   0.88417   0.24352   0.151845  
         H         H         0.94486   0.88582   0.25721   0.152158  
         H         H         0.04538   0.72374   0.24909   0.109295  
         H         H         0.04556   0.77712   0.24567   0.108522  
         H         H         0.95227   0.72327   0.24579   0.109417  
         H         H         0.95243   0.77657   0.24154   0.109371  
         C         C         0.50164   0.71964   0.24034   -0.214143           
         C         C         0.52798   0.73725   0.26844   -0.056667           
         C         C         0.97276   0.76498   0.24340   -0.062387           
         N         N         0.54169   0.50168   0.25680   -0.440924           
         N         N         0.55097   0.45056   0.26444   -0.379147           
         C         C         0.52339   0.44225   0.26336   0.329507  
         C         C         0.51432   0.41191   0.26147   -0.039258           
         C         C         0.48369   0.41192   0.26187   -0.037984           
         C         C         0.47488   0.44207   0.26171   0.327488  
         C         C         0.46727   0.38602   0.25796   -0.177894           
         C         C         0.48347   0.36051   0.25304   0.172086  
         C         C         0.51402   0.36039   0.25143   0.170349  
         C         C         0.53048   0.38586   0.25558   -0.177388           
         O         O         0.52367   0.33186   0.24805   -0.338547           
         B         B         0.49854   0.31459   0.24793   0.577230  
         O         O         0.47353   0.33201   0.25035   -0.340553           
         N         N         0.55234   0.05250   0.23770   -0.379570           
         C         C         0.52466   0.05978   0.23286   0.327816  
         N         N         0.50060   0.04177   0.23141   -0.472949           
         C         C         0.47612   0.05909   0.23531   0.327380  
         C         C         0.48468   0.08948   0.23617   -0.036563           
         C         C         0.51531   0.08983   0.23308   -0.037764           
         C         C         0.53117   0.11595   0.23544   -0.177529           
         C         C         0.51443   0.14117   0.24110   0.170788  
         C         C         0.48391   0.14093   0.24588   0.168055  
         C         C         0.46800   0.11529   0.24364   -0.178053           
         C         C         0.44087   0.02332   0.24138   0.340493  
         C         C         0.38504   0.03000   0.24476   -0.188952           
         C         C         0.36017   0.01340   0.24713   0.169356  
         N         N         0.44868   0.05082   0.23909   -0.379699           
         O         O         0.52370   0.16972   0.24199   -0.340369           
         B         B         0.49836   0.18680   0.24701   0.578306  
         C         C         0.49813   0.21987   0.24522   -0.213678           
         C         C         0.47220   0.23694   0.26270   -0.057059           
         C         C         0.52435   0.26421   0.22982   -0.054691           
         C         C         0.52416   0.23398   0.22793   -0.064627           
         O         O         0.47362   0.16931   0.25015   -0.338447           
         H         H         0.44380   0.38627   0.26030   0.151770  
         H         H         0.55396   0.38593   0.25524   0.152373  
         H         H         0.44455   0.11493   0.24662   0.151911  
         H         H         0.55463   0.11605   0.23143   0.151712  
         H         H         0.54461   0.27472   0.21520   0.108809  
         H         H         0.54428   0.22086   0.21276   0.109890  
         H         H         0.45226   0.28029   0.27988   0.108675  
         H         H         0.45194   0.22637   0.27685   0.108684  
         C         C         0.02325   0.44097   0.25060   0.328743  
         C         C         0.01430   0.41059   0.24843   -0.039102           
         C         C         0.01435   0.35909   0.23821   0.169978  
         C         C         0.03065   0.38474   0.24337   -0.178147           
         H         H         0.05414   0.38514   0.24529   0.152387  
         N         N         0.99902   0.45856   0.25384   -0.472138           
         N         N         0.05344   0.05168   0.24379   -0.380259           
         C         C         0.02596   0.05980   0.24143   0.329033  
         N         N         0.00154   0.04229   0.24024   -0.471515           
         C         C         0.98366   0.41040   0.24846   -0.037021           
         O         O         0.97412   0.33007   0.23307   -0.340206           
         B         B         0.99923   0.31311   0.23369   0.578695  
         O         O         0.02425   0.33073   0.23560   -0.340736           
         C         C         0.01723   0.09005   0.24161   -0.038447           
         C         C         0.98658   0.09002   0.24160   -0.036966           
         C         C         0.97743   0.06000   0.24288   0.328156  
         C         C         0.97035   0.11571   0.24425   -0.177446           
         C         C         0.01730   0.14137   0.24847   0.169304  
         C         C         0.03358   0.11604   0.24550   -0.177533           
         C         C         0.98676   0.14111   0.24736   0.171883  
         O         O         0.02707   0.16984   0.24977   -0.339649           
         B         B         0.00193   0.18670   0.24783   0.578557  
         C         C         0.00127   0.21943   0.24221   -0.213191           
         C         C         0.97466   0.23331   0.23195   -0.059018           
         C         C         0.97384   0.26322   0.23047   -0.060911           
         C         C         -0.00035  0.28016   0.23690   -0.212980           
         C         C         0.02622   0.26620   0.24614   -0.059535           
         O         O         0.97695   0.16926   0.24753   -0.340970           
         H         H         0.94394   0.38416   0.24354   0.151524  
         H         H         0.94687   0.11538   0.24221   0.151252  
         H         H         0.05707   0.11598   0.24451   0.152057  
         H         H         0.95316   0.27369   0.22298   0.108923  
         H         H         0.95463   0.22033   0.22607   0.108443  
         H         H         0.04627   0.27907   0.25102   0.109693  
         H         H         0.04772   0.22591   0.25648   0.109786  
         C         C         0.49843   0.28135   0.24798   -0.213288           
         C         C         0.47238   0.26719   0.26476   -0.063346           
         C         C         0.02703   0.23634   0.24847   -0.060712           
         Cu        Cu        0.50106   0.00030   0.24322   0.729355  
         Cu        Cu        0.49926   0.50104   0.25036   0.729390  
         N         N         0.49987   0.54026   0.73941   -0.471655           
         N         N         0.55176   0.55101   0.75345   -0.379136           
         C         C         0.55983   0.52384   0.75773   0.342367  
         C         C         0.59004   0.51526   0.76293   -0.037642           
         C         C         0.58966   0.48482   0.76465   -0.035410           
         C         C         0.55944   0.47578   0.76224   0.341366  
         C         C         0.61488   0.46858   0.76899   -0.190284           
         C         C         0.64021   0.48474   0.77033   0.169310  
         C         C         0.64078   0.51501   0.76786   0.170451  
         C         C         0.61593   0.53130   0.76354   -0.189498           
         O         O         0.66934   0.52427   0.76757   -0.337868           
         B         B         0.68601   0.49919   0.77021   0.587450  
         O         O         0.66826   0.47477   0.77366   -0.336888           
         N         N         0.94672   0.54926   0.74231   -0.379969           
         C         C         0.93924   0.52168   0.74474   0.340284  
         N         N         0.95717   0.49792   0.74483   -0.439859           
         C         C         0.94027   0.47339   0.74691   0.341480  
         C         C         0.90988   0.48167   0.74832   -0.037325           
         C         C         0.90929   0.51227   0.74862   -0.034921           
         C         C         0.88346   0.52819   0.75131   -0.190368           
         C         C         0.85872   0.51152   0.75472   0.170947  
         C         C         0.85925   0.48101   0.75436   0.169491  
         C         C         0.88464   0.46502   0.75164   -0.190127           
         C         C         0.97667   0.43890   0.74993   0.329268  
         C         C         0.97130   0.38221   0.74413   -0.179339           
         C         C         0.98867   0.35747   0.73950   0.170297  
         N         N         0.94893   0.44610   0.74796   -0.381504           
         O         O         0.83033   0.52102   0.75845   -0.337793           
         B         B         0.81351   0.49590   0.76106   0.586461  
         C         C         0.78035   0.49632   0.76468   -0.224203           
         C         C         0.76396   0.46981   0.75579   -0.057411           
         C         C         0.73557   0.52471   0.77697   -0.056626           
         C         C         0.76564   0.52379   0.77538   -0.057309           
         O         O         0.83110   0.47101   0.75894   -0.338537           
         H         H         0.61437   0.44541   0.77243   0.148584  
         H         H         0.61628   0.55429   0.75787   0.149011  
         H         H         0.88517   0.44178   0.75434   0.149048  
         H         H         0.88308   0.55149   0.74924   0.149530  
         H         H         0.72454   0.54598   0.78347   0.106865  
         H         H         0.77804   0.54432   0.78070   0.107777  
         H         H         0.72145   0.45019   0.75207   0.106027  
         H         H         0.77498   0.44843   0.74794   0.106386  
         C         C         0.55865   0.02334   0.74357   0.341132  
         C         C         0.58892   0.01533   0.74770   -0.036331           
         C         C         0.63953   0.01669   0.75084   0.170227  
         C         C         0.61417   0.03216   0.74703   -0.188921           
         H         H         0.61365   0.05517   0.74162   0.148427  
         N         N         0.54149   0.99918   0.74711   -0.439484           
         N         N         0.94919   0.05325   0.74819   -0.380222           
         C         C         0.94019   0.02642   0.75400   0.341046  
         N         N         0.95686   0.00175   0.75464   -0.438940           
         C         C         0.58932   0.98506   0.75127   -0.036220           
         O         O         0.66845   0.97744   0.75551   -0.338131           
         B         B         0.68531   0.00268   0.75378   0.587848  
         O         O         0.66768   0.02704   0.75049   -0.336755           
         C         C         0.90972   0.01883   0.76104   -0.035972           
         C         C         0.90888   0.98847   0.76366   -0.037647           
         C         C         0.93876   0.97845   0.76019   0.342292  
         C         C         0.88298   0.97315   0.76909   -0.188547           
         C         C         0.85905   0.02026   0.76701   0.170100  
         C         C         0.88454   0.03574   0.76251   -0.190749           
         C         C         0.85830   0.99005   0.76989   0.170564  
         O         O         0.83094   0.03054   0.76701   -0.338876           
         B         B         0.81311   0.00610   0.76997   0.588246  
         C         C         0.77986   0.00576   0.76651   -0.222650           
         C         C         0.76461   0.97856   0.75788   -0.057856           
         C         C         0.73449   0.97753   0.75273   -0.057752           
         C         C         0.71853   0.00371   0.75657   -0.225092           
         C         C         0.73377   0.03089   0.76473   -0.056403           
         O         O         0.82982   0.98112   0.77372   -0.338848           
         H         H         0.61550   0.94644   0.75827   0.147787  
         H         H         0.88252   0.95009   0.77382   0.147537  
         H         H         0.88511   0.05880   0.75772   0.148418  
         H         H         0.72306   0.95639   0.74683   0.105947  
         H         H         0.77661   0.95822   0.75607   0.106835  
         H         H         0.72177   0.05119   0.76607   0.105970  
         H         H         0.77533   0.05291   0.77369   0.106361  
         C         C         0.71918   0.49824   0.76841   -0.225426           
         C         C         0.73386   0.47076   0.75784   -0.056023           
         C         C         0.76392   0.03189   0.76937   -0.058168           
         N         N         0.49950   0.45764   0.76663   -0.473569           
         N         N         0.44765   0.44746   0.75909   -0.380602           
         C         C         0.43966   0.47457   0.75382   0.340472  
         C         C         0.40949   0.48335   0.75175   -0.037168           
         C         C         0.40966   0.51358   0.74777   -0.035577           
         C         C         0.43989   0.52219   0.74400   0.341604  
         C         C         0.38421   0.52987   0.74718   -0.189094           
         C         C         0.35904   0.51394   0.75165   0.169563  
         C         C         0.35884   0.48375   0.75492   0.169663  
         C         C         0.38383   0.46739   0.75550   -0.189813           
         O         O         0.33045   0.47446   0.75916   -0.337699           
         B         B         0.31343   0.49937   0.75717   0.587441  
         O         O         0.33084   0.52389   0.75226   -0.337752           
         N         N         0.05239   0.44927   0.74670   -0.379707           
         C         C         0.05979   0.47684   0.74426   0.341774  
         N         N         0.04202   0.50046   0.74182   -0.440141           
         C         C         0.05912   0.52498   0.74064   0.340752  
         C         C         0.08956   0.51674   0.74304   -0.033685           
         C         C         0.08975   0.48623   0.74384   -0.038880           
         C         C         0.11516   0.47017   0.74695   -0.189295           
         C         C         0.14028   0.48662   0.74825   0.169721  
         C         C         0.14036   0.51701   0.74717   0.170062  
         C         C         0.11529   0.53313   0.74420   -0.190544           
         C         C         0.02258   0.55930   0.73619   0.328129  
         C         C         0.02819   0.61588   0.74174   -0.177845           
         C         C         0.01108   0.64080   0.74665   0.172125  
         N         N         0.05037   0.55215   0.73859   -0.379167           
         O         O         0.16848   0.47710   0.75199   -0.337110           
         B         B         0.18586   0.50205   0.75181   0.588275  
         C         C         0.21904   0.50166   0.75431   -0.226747           
         C         C         0.23552   0.52774   0.75879   -0.055519           
         C         C         0.26376   0.47401   0.75391   -0.055809           
         C         C         0.23367   0.47481   0.75194   -0.057172           
         O         O         0.16879   0.52686   0.74880   -0.338456           
         H         H         0.38434   0.55286   0.74172   0.148257  
         H         H         0.38378   0.44438   0.76090   0.148499  
         H         H         0.11546   0.55638   0.74155   0.149038  
         H         H         0.11484   0.44701   0.75066   0.148237  
         H         H         0.27471   0.45319   0.75342   0.105941  
         H         H         0.22119   0.45460   0.74975   0.106242  
         H         H         0.27808   0.54706   0.76190   0.105884  
         H         H         0.22455   0.54851   0.75889   0.106176  
         C         C         0.43937   0.97357   0.74572   0.342040  
         C         C         0.40911   0.98212   0.74565   -0.038575           
         C         C         0.35853   0.98200   0.75116   0.169701  
         C         C         0.38372   0.96582   0.74966   -0.189201           
         H         H         0.38402   0.94270   0.75376   0.147807  
         N         N         0.45659   0.99787   0.74384   -0.438545           
         N         N         0.04946   0.94709   0.75273   -0.380357           
         C         C         0.05846   0.97427   0.75108   0.342031  
         N         N         0.04171   0.99871   0.74873   -0.441264           
         C         C         0.40887   0.01260   0.74466   -0.035267           
         O         O         0.32997   0.02181   0.74997   -0.337379           
         B         B         0.31294   0.99703   0.75492   0.587084  
         O         O         0.33035   0.97241   0.75708   -0.337817           
         C         C         0.08891   0.98238   0.74990   -0.036224           
         C         C         0.08971   0.01278   0.74797   -0.036825           
         C         C         0.05984   0.02225   0.74627   0.343429  
         C         C         0.11556   0.02854   0.74635   -0.188673           
         C         C         0.13953   0.98161   0.75035   0.169987  
         C         C         0.11410   0.96577   0.75170   -0.189961           
         C         C         0.14024   0.01190   0.74818   0.170084  
         O         O         0.16763   0.97146   0.75172   -0.338496           
         B         B         0.18538   0.99608   0.75000   0.588288  
         C         C         0.21854   0.99613   0.75155   -0.227314           
         C         C         0.23412   0.02263   0.75424   -0.056563           
         C         C         0.26423   0.02296   0.75596   -0.056885           
         C         C         0.27976   0.99680   0.75552   -0.224573           
         C         C         0.26419   0.97033   0.75312   -0.057318           
         O         O         0.16871   0.02115   0.74724   -0.337009           
         H         H         0.38305   0.05188   0.74236   0.148969  
         H         H         0.11596   0.05163   0.74192   0.148565  
         H         H         0.11357   0.94266   0.75589   0.148201  
         H         H         0.27595   0.04340   0.75567   0.106873  
         H         H         0.22240   0.04289   0.75329   0.106420  
         H         H         0.27591   0.95007   0.75405   0.105589  
         H         H         0.22233   0.94947   0.75045   0.105269  
         C         C         0.28025   0.50006   0.75798   -0.225738           
         C         C         0.26561   0.52692   0.76050   -0.056856           
         C         C         0.23407   0.96997   0.75100   -0.055634           
         Cu        Cu        -0.00042  0.49919   0.74300   0.727817  
         Cu        Cu        -0.00072  0.00015   0.75101   0.728097  
         N         N         0.45721   0.49843   0.74937   -0.438464           
         N         N         0.44806   0.54913   0.73684   -0.380121           
         C         C         0.47563   0.55723   0.73510   0.328629  
         C         C         0.48459   0.58727   0.73308   -0.040615           
         C         C         0.51524   0.58814   0.74157   -0.038475           
         C         C         0.52418   0.55833   0.74533   0.329025  
         C         C         0.53155   0.61443   0.74918   -0.177186           
         C         C         0.51524   0.63923   0.74629   0.171662  
         C         C         0.48469   0.63813   0.73533   0.171643  
         C         C         0.46832   0.61241   0.72892   -0.175501           
         O         O         0.47493   0.66603   0.73161   -0.341548           
         B         B         0.50003   0.68414   0.74042   0.578150  
         O         O         0.52507   0.66787   0.75035   -0.338984           
         N         N         0.44768   0.94629   0.74774   -0.380366           
         C         C         0.47532   0.93895   0.75294   0.328291  
         N         N         0.49947   0.95716   0.75858   -0.472854           
         C         C         0.52389   0.94011   0.75978   0.326682  
         C         C         0.51510   0.90975   0.75894   -0.036870           
         C         C         0.48444   0.90888   0.75275   -0.036762           
         C         C         0.46824   0.88235   0.74299   -0.177949           
         C         C         0.48468   0.85727   0.74135   0.170011  
         C         C         0.51523   0.85835   0.75069   0.168176  
         C         C         0.53149   0.88433   0.75895   -0.176938           
         C         C         0.55921   0.97571   0.75262   0.340852  
         C         C         0.61516   0.96956   0.75414   -0.189542           
         C         C         0.63998   0.98642   0.75333   0.169186  
         N         N         0.55136   0.94851   0.75818   -0.380595           
         O         O         0.47496   0.82830   0.73370   -0.339204           
         B         B         0.50005   0.81189   0.74076   0.579451  
         C         C         0.50005   0.77869   0.74122   -0.212471           
         C         C         0.52599   0.76573   0.77000   -0.064818           
         C         C         0.47408   0.73014   0.70910   -0.063884           
         C         C         0.47406   0.76040   0.71126   -0.058068           
         O         O         0.52509   0.83017   0.75086   -0.340406           
         H         H         0.55503   0.61505   0.75572   0.152486  
         H         H         0.44483   0.61145   0.71955   0.150962  
         H         H         0.55498   0.88534   0.76667   0.152068  
         H         H         0.44474   0.88175   0.73796   0.151083  
         H         H         0.45390   0.71614   0.68429   0.109184  
         H         H         0.45392   0.77002   0.68707   0.108773  
         H         H         0.54616   0.72588   0.79206   0.108946  
         H         H         0.54617   0.77977   0.79505   0.109770  
         C         C         0.97402   0.55793   0.73829   0.329683  
         C         C         0.98213   0.58845   0.73919   -0.037487           
         C         C         0.98056   0.63984   0.74779   0.171046  
         C         C         0.96506   0.61385   0.74450   -0.177725           
         H         H         0.94160   0.61288   0.74487   0.150693  
         N         N         0.99873   0.54095   0.73435   -0.471138           
         N         N         0.94593   0.95071   0.76110   -0.380906           
         C         C         0.97316   0.94164   0.76032   0.328159  
         N         N         0.99797   0.95855   0.76128   -0.471704           
         C         C         0.01277   0.58935   0.73776   -0.037824           
         O         O         0.02002   0.66956   0.74892   -0.340792           
         B         B         0.99447   0.68602   0.74967   0.578087  
         O         O         0.96992   0.66795   0.75002   -0.340613           
         C         C         0.98117   0.91089   0.75668   -0.036136           
         C         C         0.01178   0.90990   0.75300   -0.037806           
         C         C         0.02164   0.94002   0.75561   0.329756  
         C         C         0.02744   0.88340   0.74498   -0.179603           
         C         C         0.98000   0.85920   0.74492   0.171783  
         C         C         0.96426   0.88525   0.75249   -0.178343           
         C         C         0.01051   0.85835   0.74195   0.170737  
         O         O         0.96961   0.83084   0.74193   -0.341373           
         B         B         0.99422   0.81294   0.73946   0.578952  
         C         C         0.99381   0.77997   0.74271   -0.212289           
         C         C         0.01998   0.76471   0.74487   -0.058705           
         C         C         0.02002   0.73477   0.74639   -0.062168           
         C         C         0.99388   0.71900   0.74634   -0.211663           
         C         C         0.96765   0.73422   0.74365   -0.059333           
         O         O         0.01965   0.82968   0.73872   -0.340694           
         H         H         0.05166   0.61654   0.73908   0.151829  
         H         H         0.05090   0.88293   0.74292   0.153049  
         H         H         0.94082   0.88605   0.75667   0.150678  
         H         H         0.04042   0.72332   0.74852   0.110364  
         H         H         0.04034   0.77659   0.74460   0.110426  
         H         H         0.94728   0.72230   0.74321   0.107952  
         H         H         0.94724   0.77581   0.74175   0.108577  
         C         C         0.50004   0.71718   0.73804   -0.213508           
         C         C         0.52600   0.73547   0.76784   -0.054580           
         C         C         0.96762   0.76425   0.74307   -0.062594           
         N         N         0.54221   0.49966   0.75812   -0.438974           
         N         N         0.55128   0.44828   0.76318   -0.381089           
         C         C         0.52374   0.44010   0.76410   0.330250  
         C         C         0.51485   0.40972   0.76191   -0.036314           
         C         C         0.48421   0.40966   0.76366   -0.038021           
         C         C         0.47522   0.43982   0.76386   0.327809  
         C         C         0.46803   0.38370   0.76076   -0.178197           
         C         C         0.48448   0.35828   0.75504   0.170588  
         C         C         0.51501   0.35815   0.75063   0.168326  
         C         C         0.53125   0.38371   0.75425   -0.178268           
         O         O         0.52491   0.32953   0.74508   -0.337914           
         B         B         0.49992   0.31235   0.74793   0.578568  
         O         O         0.47483   0.32981   0.75344   -0.341324           
         N         N         0.55031   0.05031   0.73801   -0.379240           
         C         C         0.52270   0.05771   0.73415   0.325926  
         N         N         0.49855   0.03993   0.73336   -0.471254           
         C         C         0.47424   0.05743   0.73658   0.332155  
         C         C         0.48302   0.08772   0.73670   -0.038939           
         C         C         0.51363   0.08769   0.73367   -0.038376           
         C         C         0.52998   0.11338   0.73505   -0.176776           
         C         C         0.51370   0.13884   0.74053   0.172272  
         C         C         0.48318   0.13911   0.74537   0.170145  
         C         C         0.46678   0.11377   0.74326   -0.177302           
         C         C         0.43897   0.02175   0.74234   0.341059  
         C         C         0.38322   0.02865   0.74524   -0.189873           
         C         C         0.35830   0.01224   0.74850   0.170703  
         N         N         0.44677   0.04924   0.74001   -0.379554           
         O         O         0.52357   0.16716   0.74128   -0.339729           
         B         B         0.49854   0.18466   0.74584   0.577655  
         C         C         0.49881   0.21773   0.74447   -0.213965           
         C         C         0.47303   0.23504   0.76236   -0.054658           
         C         C         0.52552   0.26191   0.73084   -0.058482           
         C         C         0.52503   0.23161   0.72801   -0.062205           
         O         O         0.47347   0.16768   0.74960   -0.339673           
         H         H         0.44456   0.38387   0.76436   0.151813  
         H         H         0.55472   0.38384   0.75192   0.152608  
         H         H         0.44331   0.11381   0.74524   0.151649  
         H         H         0.55343   0.11300   0.73071   0.151959  
         H         H         0.54589   0.27232   0.71694   0.109773  
         H         H         0.54502   0.21828   0.71279   0.108963  
         H         H         0.45352   0.27866   0.78006   0.109703  
         H         H         0.45267   0.22464   0.77631   0.108677  
         C         C         0.02510   0.44055   0.74932   0.330025  
         C         C         0.01715   0.41006   0.74825   -0.037888           
         C         C         0.01919   0.35872   0.73867   0.170934  
         C         C         0.03450   0.38490   0.74306   -0.178186           
         H         H         0.05795   0.38619   0.74357   0.151561  
         N         N         0.00042   0.45739   0.75203   -0.471331           
         N         N         0.05270   0.04979   0.74362   -0.380136           
         C         C         0.02544   0.05846   0.74101   0.326936  
         N         N         0.00057   0.04161   0.73901   -0.471833           
         C         C         0.98654   0.40889   0.74862   -0.035634           
         O         O         0.98002   0.32861   0.73707   -0.341452           
         B         B         0.00575   0.31237   0.73532   0.579622  
         O         O         0.03011   0.33065   0.73510   -0.339571           
         C         C         0.01771   0.08894   0.74201   -0.038285           
         C         C         0.98710   0.08997   0.74161   -0.037922           
         C         C         0.97698   0.06010   0.74206   0.330833  
         C         C         0.97206   0.11647   0.74482   -0.177226           
         C         C         0.02013   0.14033   0.75189   0.171878  
         C         C         0.03525   0.11426   0.74794   -0.177291           
         C         C         0.98961   0.14122   0.74893   0.170477  
         O         O         0.03119   0.16851   0.75564   -0.339443           
         B         B         0.00689   0.18630   0.75163   0.579359  
         C         C         0.00745   0.21897   0.74580   -0.213628           
         C         C         0.98110   0.23316   0.73523   -0.059373           
         C         C         0.98073   0.26293   0.73221   -0.061341           
         C         C         0.00672   0.27949   0.73877   -0.213131           
         C         C         0.03314   0.26526   0.74874   -0.060641           
         O         O         0.98114   0.16978   0.74885   -0.342207           
         H         H         0.94785   0.38122   0.74562   0.152242  
         H         H         0.94860   0.11727   0.74225   0.151737  
         H         H         0.05870   0.11316   0.74816   0.151819  
         H         H         0.96023   0.27362   0.72349   0.109992  
         H         H         0.96088   0.22055   0.73010   0.109529  
         H         H         0.05336   0.27787   0.75382   0.108687  
         H         H         0.05401   0.22463   0.75882   0.108667  
         C         C         0.49974   0.27922   0.74871   -0.213300           
         C         C         0.47351   0.26533   0.76505   -0.065450           
         C         C         0.03350   0.23542   0.75121   -0.059520           
         Cu        Cu        0.49903   0.99854   0.74580   0.729088  
         Cu        Cu        0.49971   0.49906   0.75411   0.728517 

