
##########################################################################
#               Crystallographic Information Format file
#               Produced by PyCifRW module
#
#  This is a CIF file.  CIF has been adopted by the International
#  Union of Crystallography as the standard for data archiving and
#  transmission.
#
#  For information on this file format, follow the CIF links at
#  http://www.iucr.org
##########################################################################

data_image0

_cell_length_a                          44.794
_cell_length_b                          49.0731
_cell_length_c                          30.9345
_cell_angle_alpha                       89.7012
_cell_angle_beta                        91.2499
_cell_angle_gamma                       90.0177
_symmetry_space_group_name_H-M          'P 1'
_space_group_name_Hall                  'P 1'
loop_
  _atom_site_type_symbol
  _atom_site_label
  _atom_site_fract_x
  _atom_site_fract_y
  _atom_site_fract_z
  _atom_site_charge
         C         C         0.11706   0.10458   0.34075   0.066360  
         C         C         0.23765   0.51448   0.08967   -0.245363           
         C         C         0.31077   0.85183   0.34636   -0.143410           
         C         C         0.29047   0.87233   0.35555   -0.132145           
         C         C         0.29869   0.89995   0.35270   0.047395  
         C         C         0.32762   0.90646   0.33898   -0.104550           
         C         C         0.34785   0.88593   0.32991   -0.139886           
         C         C         0.37717   0.64860   0.24424   -0.142951           
         C         C         0.36196   0.62606   0.22769   -0.132678           
         C         C         0.33229   0.62835   0.21225   0.047776  
         C         C         0.31818   0.65397   0.21406   -0.105978           
         C         C         0.33345   0.67642   0.23040   -0.140970           
         C         C         0.59768   0.85566   0.23911   -0.142085           
         C         C         0.61359   0.87772   0.22343   -0.103481           
         C         C         0.59990   0.90345   0.21882   0.050012  
         C         C         0.57008   0.90637   0.23145   -0.131176           
         C         C         0.55419   0.88420   0.24747   -0.141595           
         C         C         0.58500   0.64601   0.33521   -0.138865           
         C         C         0.60557   0.62526   0.34280   -0.105973           
         C         C         0.63615   0.63134   0.34840   0.053783  
         C         C         0.64539   0.65866   0.34498   -0.131891           
         C         C         0.62469   0.67942   0.33762   -0.139886           
         C         C         0.27767   0.92066   0.36645   0.066955  
         C         C         0.65822   0.61064   0.36048   0.065466  
         C         C         0.81540   0.42676   0.34201   0.066873  
         C         C         0.95230   0.25712   0.24933   0.040956  
         C         C         0.97785   0.27820   0.24823   0.040367  
         C         C         0.96325   0.27281   0.31992   0.536234  
         C         C         0.97703   0.25626   0.35699   -0.509417           
         C         C         0.90294   0.24003   0.21684   0.024585  
         C         C         0.90500   0.21661   0.24279   -0.141231           
         C         C         0.88432   0.19541   0.23794   -0.135517           
         C         C         0.86078   0.19715   0.20733   0.050846  
         C         C         0.85874   0.22089   0.18157   -0.138617           
         C         C         0.87943   0.24183   0.18620   -0.118360           
         C         C         0.92437   0.26434   0.22026   0.206885  
         C         C         0.76019   0.06841   0.15419   0.198242  
         N         N         0.78102   0.08636   0.17305   -0.289734           
         C         C         0.90781   0.28917   0.23715   0.031795  
         C         C         0.88554   0.28641   0.26805   -0.117608           
         C         C         0.87067   0.30918   0.28352   -0.137562           
         C         C         0.87770   0.33560   0.26900   0.053276  
         C         C         0.90019   0.33828   0.23828   -0.141601           
         C         C         0.91473   0.31541   0.22229   -0.126325           
         C         C         0.94527   0.29729   0.33485   -0.521034           
         N         N         0.78871   0.42439   0.35660   -0.288450           
         C         C         0.77545   0.44651   0.37736   0.199913  
         C         C         0.02900   0.29198   0.21986   -0.002110           
         C         C         0.05530   0.28673   0.19731   -0.131156           
         C         C         0.07687   0.30684   0.19223   -0.133693           
         C         C         0.07311   0.33303   0.20977   0.062882  
         C         C         0.04704   0.33800   0.23294   -0.133266           
         C         C         0.02531   0.31788   0.23786   -0.127496           
         C         C         0.00579   0.26926   0.22251   0.205806  
         C         C         0.17648   0.45831   0.15146   0.195352  
         N         N         0.15475   0.44125   0.16926   -0.283367           
         C         C         0.01990   0.24334   0.24105   0.023235  
         C         C         0.01432   0.21775   0.22268   -0.130353           
         C         C         0.02874   0.19445   0.23885   -0.137436           
         C         C         0.04951   0.19615   0.27345   0.057840  
         C         C         0.05429   0.22182   0.29253   -0.139425           
         C         C         0.03967   0.24496   0.27676   -0.116724           
         N         N         0.14409   0.10729   0.35552   -0.289720           
         C         C         0.15874   0.08511   0.37537   0.198982  
         O         O         0.94489   0.25475   0.29394   -0.311819           
         O         O         0.99534   0.26320   0.17819   -0.500700           
         O         O         0.98683   0.28178   0.29235   -0.309165           
         O         O         0.93459   0.27104   0.17766   -0.523723           
         C         C         0.74526   0.07445   0.11471   -0.185071           
         C         C         0.72558   0.05572   0.09607   -0.151184           
         C         C         0.72007   0.03044   0.11580   0.103569  
         C         C         0.73498   0.02445   0.15506   -0.146471           
         C         C         0.75501   0.04297   0.17381   -0.163119           
         C         C         0.19484   0.44977   0.11767   -0.181290           
         C         C         0.21481   0.46788   0.09900   -0.150100           
         C         C         0.21733   0.49490   0.11324   0.107714  
         C         C         0.19927   0.50325   0.14723   -0.144183           
         C         C         0.17883   0.48544   0.16568   -0.161790           
         C         C         0.17824   0.09098   0.41033   -0.160431           
         C         C         0.19249   0.07002   0.43325   -0.152816           
         C         C         0.18843   0.04268   0.42162   0.108714  
         C         C         0.17014   0.03696   0.38529   -0.139702           
         C         C         0.15544   0.05773   0.36244   -0.184896           
         C         C         0.75893   0.44090   0.41452   -0.166055           
         C         C         0.74597   0.46200   0.43757   -0.151686           
         C         C         0.74818   0.48917   0.42363   0.106006  
         C         C         0.76347   0.49455   0.38537   -0.141777           
         C         C         0.77714   0.47368   0.36261   -0.187340           
         C         C         0.73501   0.51199   0.44973   -0.245953           
         C         C         0.83871   0.17506   0.20145   0.073440  
         C         C         0.86153   0.35954   0.28539   0.072798  
         C         C         0.09570   0.35453   0.20346   0.064157  
         C         C         0.06677   0.17221   0.28891   0.068834  
         C         C         0.31732   0.60461   0.19358   0.067093  
         C         C         0.12620   0.34805   0.20071   -0.140168           
         C         C         0.14720   0.36825   0.19260   -0.130247           
         C         C         0.13850   0.39561   0.18700   0.052550  
         C         C         0.10808   0.40229   0.19065   -0.104858           
         C         C         0.08718   0.38210   0.19876   -0.138750           
         C         C         0.05376   0.14625   0.29272   -0.142003           
         C         C         0.07037   0.12423   0.30879   -0.130741           
         C         C         0.10058   0.12741   0.32126   0.050197  
         C         C         0.11388   0.15323   0.31640   -0.105330           
         C         C         0.09725   0.17513   0.30067   -0.139723           
         C         C         0.83062   0.35800   0.29315   -0.142169           
         C         C         0.81533   0.37984   0.31049   -0.106150           
         C         C         0.83042   0.40424   0.32072   0.047437  
         C         C         0.86100   0.40622   0.31170   -0.130348           
         C         C         0.87631   0.38424   0.29433   -0.143312           
         C         C         0.84695   0.14737   0.20532   -0.140934           
         C         C         0.82648   0.12669   0.19678   -0.104028           
         C         C         0.79686   0.13302   0.18419   0.046884  
         C         C         0.78832   0.16057   0.18158   -0.130552           
         C         C         0.80884   0.18121   0.19021   -0.143199           
         C         C         0.16089   0.41576   0.17512   0.064470  
         C         C         0.77527   0.11216   0.17157   0.067842  
         C         C         0.47832   0.75446   0.28825   0.040952  
         C         C         0.45385   0.77666   0.28764   0.043098  
         C         C         0.46454   0.76390   0.21590   0.536795  
         C         C         0.44556   0.74192   0.19410   -0.521537           
         C         C         0.52913   0.73809   0.31793   -0.001132           
         C         C         0.52494   0.71316   0.29678   -0.126465           
         C         C         0.54604   0.69234   0.30159   -0.132006           
         C         C         0.57188   0.69567   0.32759   0.061258  
         C         C         0.57595   0.72083   0.34864   -0.131382           
         C         C         0.55507   0.74165   0.34370   -0.136591           
         C         C         0.50697   0.76168   0.31544   0.206693  
         C         C         0.67311   0.56809   0.38547   0.195574  
         N         N         0.65143   0.58537   0.36676   -0.284788           
         C         C         0.52198   0.78734   0.29860   0.020724  
         C         C         0.54111   0.78560   0.26342   -0.117649           
         C         C         0.55549   0.80869   0.24793   -0.138532           
         C         C         0.55112   0.83436   0.26685   0.058244  
         C         C         0.53134   0.83610   0.30135   -0.138743           
         C         C         0.51713   0.81289   0.31721   -0.128366           
         C         C         0.48061   0.78225   0.18403   -0.511930           
         N         N         0.64240   0.92395   0.18532   -0.291722           
         C         C         0.65657   0.94606   0.16542   0.197982  
         C         C         0.40438   0.79376   0.31784   0.027688  
         C         C         0.38150   0.79149   0.34793   -0.117851           
         C         C         0.36084   0.81226   0.35290   -0.139859           
         C         C         0.36210   0.83627   0.32779   0.051213  
         C         C         0.38501   0.83846   0.29768   -0.135713           
         C         C         0.40583   0.81750   0.29269   -0.140287           
         C         C         0.42590   0.76957   0.31501   0.209469  
         C         C         0.26324   0.96406   0.38568   0.199148  
         N         N         0.28345   0.94647   0.36592   -0.288861           
         C         C         0.40926   0.74480   0.29693   0.027813  
         C         C         0.41472   0.71877   0.31419   -0.127127           
         C         C         0.40006   0.69594   0.29742   -0.140777           
         C         C         0.37921   0.69839   0.26299   0.052200  
         C         C         0.37355   0.72466   0.24616   -0.137215           
         C         C         0.38828   0.74743   0.26283   -0.118682           
         N         N         0.29010   0.60559   0.17898   -0.292122           
         C         C         0.27699   0.58236   0.16031   0.199741  
         O         O         0.48655   0.75135   0.24429   -0.310547           
         O         O         0.43607   0.76309   0.35835   -0.527008           
         O         O         0.44624   0.78061   0.24291   -0.308566           
         O         O         0.49707   0.76725   0.35950   -0.500232           
         C         C         0.69235   0.57678   0.41933   -0.182217           
         C         C         0.71248   0.55866   0.43884   -0.151845           
         C         C         0.71423   0.53144   0.42553   0.107210  
         C         C         0.69513   0.52287   0.39165   -0.142982           
         C         C         0.67459   0.54073   0.37228   -0.161424           
         C         C         0.24972   0.95741   0.42512   -0.187458           
         C         C         0.23018   0.97556   0.44423   -0.153614           
         C         C         0.22344   0.00086   0.42502   0.102879  
         C         C         0.23725   0.00760   0.38613   -0.146367           
         C         C         0.25713   0.98968   0.36691   -0.163518           
         C         C         0.25612   0.58682   0.12639   -0.159601           
         C         C         0.24339   0.56493   0.10415   -0.153080           
         C         C         0.25034   0.53795   0.11564   0.107930  
         C         C         0.26981   0.53353   0.15123   -0.141864           
         C         C         0.28306   0.55527   0.17328   -0.184286           
         C         C         0.67681   0.93983   0.13279   -0.159860           
         C         C         0.69086   0.96055   0.10989   -0.151627           
         C         C         0.68579   0.98806   0.11928   0.111583  
         C         C         0.66670   0.99422   0.15333   -0.142780           
         C         C         0.65222   0.97367   0.17608   -0.180630           
         C         C         0.69979   0.01025   0.09245   -0.244036           
         C         C         0.20284   0.02020   0.44825   -0.243056           
         C         C         0.59404   0.67356   0.33316   0.066120  
         C         C         0.56761   0.85837   0.25117   0.069047  
         C         C         0.34007   0.85817   0.33415   0.073583  
         C         C         0.36328   0.67430   0.24576   0.071104  
         C         C         0.61558   0.92641   0.19935   0.067662  
         H         H         0.10468   0.08530   0.34385   0.067138  
         H         H         0.25613   0.50269   0.07613   0.107291  
         H         H         0.22523   0.52291   0.06152   0.110467  
         H         H         0.30398   0.83060   0.34860   0.111202  
         H         H         0.26802   0.86706   0.36553   0.107080  
         H         H         0.33388   0.92785   0.33693   0.115974  
         H         H         0.37047   0.89126   0.32090   0.111639  
         H         H         0.40027   0.64649   0.25527   0.109405  
         H         H         0.37313   0.60639   0.22619   0.106103  
         H         H         0.29520   0.65563   0.20225   0.116326  
         H         H         0.32213   0.69598   0.23217   0.112637  
         H         H         0.60853   0.83594   0.24285   0.111445  
         H         H         0.63676   0.87569   0.21416   0.113740  
         H         H         0.55921   0.92613   0.22791   0.106608  
         H         H         0.53093   0.88665   0.25613   0.111937  
         H         H         0.56136   0.64109   0.33219   0.111354  
         H         H         0.59854   0.60411   0.34568   0.119265  
         H         H         0.66902   0.66353   0.34864   0.107831  
         H         H         0.63226   0.70041   0.33488   0.112231  
         H         H         0.25630   0.91291   0.37849   0.064046  
         H         H         0.68126   0.61805   0.36528   0.065759  
         H         H         0.82860   0.44549   0.34669   0.067096  
         H         H         0.96047   0.23714   0.23861   0.057306  
         H         H         0.96960   0.29750   0.23420   0.048341  
         H         H         0.98994   0.23935   0.34386   0.149124  
         H         H         0.95935   0.24809   0.37736   0.150113  
         H         H         0.99179   0.26906   0.37705   0.147255  
         H         H         0.92236   0.21491   0.26776   0.118512  
         H         H         0.88613   0.17761   0.25897   0.106149  
         H         H         0.84101   0.22252   0.15710   0.107775  
         H         H         0.87773   0.25984   0.16566   0.123055  
         H         H         0.87988   0.26625   0.28009   0.114521  
         H         H         0.85370   0.30664   0.30785   0.107749  
         H         H         0.90567   0.35841   0.22586   0.106332  
         H         H         0.93116   0.31762   0.19720   0.111233  
         H         H         0.92585   0.29048   0.35301   0.149084  
         H         H         0.93724   0.30938   0.30707   0.139429  
         H         H         0.95936   0.31015   0.35583   0.143859  
         H         H         0.05863   0.26660   0.18364   0.119011  
         H         H         0.09668   0.30243   0.17377   0.111025  
         H         H         0.04396   0.35775   0.24803   0.110389  
         H         H         0.00579   0.32233   0.25680   0.121028  
         H         H         -0.00054  0.21619   0.19457   0.120262  
         H         H         0.02475   0.17493   0.22324   0.108647  
         H         H         0.06970   0.22355   0.32005   0.109962  
         H         H         0.04392   0.26461   0.29172   0.115490  
         H         H         0.00007   0.27911   0.16072   0.367330  
         H         H         0.95473   0.26331   0.17468   0.330880  
         H         H         0.74995   0.09359   0.09831   0.110901  
         H         H         0.71451   0.06058   0.06530   0.105560  
         H         H         0.73092   0.00500   0.17094   0.110651  
         H         H         0.76675   0.03820   0.20405   0.118855  
         H         H         0.19247   0.42917   0.10521   0.108234  
         H         H         0.22838   0.46110   0.07234   0.104997  
         H         H         0.20109   0.52408   0.15892   0.112413  
         H         H         0.16450   0.49210   0.19151   0.119252  
         H         H         0.18131   0.11218   0.41947   0.118334  
         H         H         0.20699   0.07486   0.46085   0.106935  
         H         H         0.16756   0.01593   0.37481   0.114141  
         H         H         0.14166   0.05295   0.33408   0.112397  
         H         H         0.75705   0.41983   0.42517   0.118170  
         H         H         0.73386   0.45743   0.46687   0.107247  
         H         H         0.76442   0.51539   0.37324   0.113443  
         H         H         0.78869   0.47816   0.33282   0.113980  
         H         H         0.75335   0.52405   0.46432   0.100261  
         H         H         0.72315   0.50311   0.47727   0.114378  
         H         H         0.33099   0.58603   0.19136   0.065273  
         H         H         0.13344   0.32706   0.20527   0.112111  
         H         H         0.17071   0.36294   0.19030   0.107727  
         H         H         0.10138   0.42344   0.18600   0.118856  
         H         H         0.06363   0.38741   0.20001   0.110783  
         H         H         0.03024   0.14356   0.28429   0.111716  
         H         H         0.05981   0.10439   0.31255   0.106128  
         H         H         0.13733   0.15552   0.32557   0.114817  
         H         H         0.10786   0.19491   0.29670   0.110967  
         H         H         0.81865   0.33940   0.28479   0.112985  
         H         H         0.79155   0.37857   0.31668   0.116996  
         H         H         0.87291   0.42499   0.31941   0.105587  
         H         H         0.90015   0.38585   0.28883   0.110516  
         H         H         0.87001   0.14222   0.21352   0.111595  
         H         H         0.83297   0.10535   0.19855   0.115430  
         H         H         0.76537   0.16564   0.17242   0.105523  
         H         H         0.80180   0.20241   0.18839   0.111558  
         H         H         0.18353   0.40772   0.17035   0.066041  
         H         H         0.75350   0.11979   0.15951   0.064131  
         H         H         0.46929   0.73519   0.30088   0.050431  
         H         H         0.46291   0.79595   0.30043   0.058437  
         H         H         0.43553   0.72870   0.21850   0.144782  
         H         H         0.45948   0.72961   0.17295   0.145490  
         H         H         0.42758   0.75135   0.17455   0.149000  
         H         H         0.50571   0.71015   0.27532   0.122724  
         H         H         0.54270   0.67342   0.28400   0.110329  
         H         H         0.59552   0.72388   0.36946   0.110676  
         H         H         0.55877   0.76109   0.35972   0.119538  
         H         H         0.54472   0.76595   0.24838   0.116869  
         H         H         0.57016   0.80696   0.22052   0.109087  
         H         H         0.52792   0.85567   0.31686   0.110047  
         H         H         0.50282   0.81452   0.34499   0.120215  
         H         H         0.46438   0.79236   0.16226   0.148912  
         H         H         0.49571   0.77011   0.16441   0.146555  
         H         H         0.49370   0.79767   0.20161   0.148205  
         H         H         0.38049   0.77327   0.36798   0.123744  
         H         H         0.34387   0.81024   0.37732   0.108405  
         H         H         0.38632   0.85655   0.27731   0.105486  
         H         H         0.42289   0.81967   0.26844   0.116479  
         H         H         0.42995   0.71680   0.34186   0.111084  
         H         H         0.40409   0.67605   0.31208   0.105010  
         H         H         0.35778   0.72714   0.21918   0.106711  
         H         H         0.38362   0.76749   0.24917   0.114454  
         H         H         0.45725   0.76826   0.36161   0.329978  
         H         H         0.50227   0.75128   0.37688   0.366523  
         H         H         0.69057   0.59755   0.43111   0.110104  
         H         H         0.72688   0.56560   0.46540   0.106206  
         H         H         0.69633   0.50188   0.38062   0.113100  
         H         H         0.65954   0.53392   0.34646   0.119256  
         H         H         0.25522   0.93813   0.44091   0.110022  
         H         H         0.22012   0.97015   0.47485   0.107023  
         H         H         0.23233   0.02713   0.37076   0.110662  
         H         H         0.26783   0.99499   0.33678   0.119813  
         H         H         0.25085   0.60776   0.11744   0.118212  
         H         H         0.22784   0.56877   0.07726   0.108998  
         H         H         0.27458   0.51272   0.16166   0.112687  
         H         H         0.29790   0.55142   0.20095   0.111886  
         H         H         0.68062   0.91851   0.12532   0.117901  
         H         H         0.70597   0.95536   0.08410   0.105423  
         H         H         0.66321   0.01543   0.16201   0.114535  
         H         H         0.63771   0.97887   0.20254   0.111042  
         H         H         0.68193   0.02190   0.07570   0.108530  
         H         H         0.71254   0.00063   0.06659   0.106657  
         H         H         0.21537   0.02949   0.47546   0.100259  
         H         H         0.18525   0.00790   0.46329   0.112151  
         H         H         0.60281   0.94549   0.19578   0.066350  
         C         C         0.88102   0.60379   0.66494   0.067302  
         C         C         0.76220   0.01350   0.90569   -0.245159           
         C         C         0.69092   0.35083   0.65727   -0.140798           
         C         C         0.71117   0.37143   0.64787   -0.132505           
         C         C         0.70243   0.39895   0.64784   0.052860  
         C         C         0.67293   0.40530   0.65895   -0.104455           
         C         C         0.65277   0.38471   0.66840   -0.138945           
         C         C         0.62140   0.14609   0.74956   -0.142894           
         C         C         0.63698   0.12351   0.76571   -0.128588           
         C         C         0.66677   0.12592   0.78057   0.048603  
         C         C         0.68066   0.15164   0.77846   -0.105825           
         C         C         0.66499   0.17414   0.76284   -0.140658           
         C         C         0.39892   0.35488   0.76185   -0.141313           
         C         C         0.38384   0.37707   0.77843   -0.106038           
         C         C         0.39838   0.40233   0.78366   0.047318  
         C         C         0.42826   0.40466   0.77104   -0.130063           
         C         C         0.44334   0.38236   0.75438   -0.140449           
         C         C         0.41629   0.14429   0.66698   -0.137546           
         C         C         0.39591   0.12348   0.65872   -0.105818           
         C         C         0.36559   0.12954   0.65028   0.048487  
         C         C         0.35636   0.15693   0.65168   -0.132508           
         C         C         0.37685   0.17772   0.65956   -0.142582           
         C         C         0.72360   0.41981   0.63443   0.065508  
         C         C         0.34364   0.10894   0.63767   0.066362  
         C         C         0.18661   0.92261   0.65785   0.066891  
         C         C         0.04675   0.75381   0.75386   0.054197  
         C         C         0.02198   0.77558   0.75369   0.040942  
         C         C         0.03367   0.76536   0.68153   0.538742  
         C         C         0.01606   0.74577   0.65261   -0.515838           
         C         C         0.09693   0.73685   0.78386   0.024669  
         C         C         0.09341   0.71268   0.76039   -0.138870           
         C         C         0.11430   0.69161   0.76467   -0.137326           
         C         C         0.13947   0.69413   0.79216   0.051811  
         C         C         0.14279   0.71844   0.81583   -0.139972           
         C         C         0.12193   0.73931   0.81176   -0.113502           
         C         C         0.07549   0.76122   0.78086   0.203066  
         C         C         0.24224   0.56752   0.84869   0.198872  
         N         N         0.22040   0.58446   0.82952   -0.290247           
         C         C         0.09158   0.78585   0.76188   0.030154  
         C         C         0.11294   0.78270   0.72980   -0.118644           
         C         C         0.12837   0.80513   0.71389   -0.138911           
         C         C         0.12267   0.83157   0.72909   0.055033  
         C         C         0.10070   0.83471   0.76040   -0.143489           
         C         C         0.08563   0.81217   0.77681   -0.123985           
         C         C         0.05138   0.78634   0.65611   -0.517555           
         N         N         0.21295   0.92042   0.64206   -0.288760           
         C         C         0.22576   0.94343   0.62271   0.199711  
         C         C         0.97181   0.79114   0.78349   -0.001406           
         C         C         0.94603   0.78704   0.80786   -0.133535           
         C         C         0.92499   0.80765   0.81222   -0.135915           
         C         C         0.92867   0.83324   0.79209   0.062837  
         C         C         0.95440   0.83718   0.76761   -0.132663           
         C         C         0.97561   0.81653   0.76331   -0.123368           
         C         C         0.99418   0.76773   0.78074   0.203196  
         C         C         0.82516   0.95896   0.84500   0.197451  
         N         N         0.84685   0.94209   0.82694   -0.283242           
         C         C         0.97873   0.74204   0.76394   0.022899  
         C         C         0.98426   0.71637   0.78253   -0.127532           
         C         C         0.96921   0.69322   0.76739   -0.140062           
         C         C         0.94792   0.69505   0.73344   0.058876  
         C         C         0.94279   0.72087   0.71463   -0.140774           
         C         C         0.95796   0.74389   0.72942   -0.116641           
         N         N         0.85415   0.60687   0.64966   -0.290012           
         C         C         0.83928   0.58530   0.62886   0.197821  
         O         O         0.05367   0.75000   0.70946   -0.311101           
         O         O         0.00579   0.76186   0.82470   -0.502707           
         O         O         0.01322   0.77917   0.70947   -0.313313           
         O         O         0.06688   0.76838   0.82400   -0.522202           
         C         C         0.26055   0.57631   0.88357   -0.184659           
         C         C         0.28126   0.55865   0.90291   -0.152603           
         C         C         0.28454   0.53181   0.88837   0.102948  
         C         C         0.26603   0.52300   0.85401   -0.145635           
         C         C         0.24493   0.54040   0.83477   -0.165223           
         C         C         0.80874   0.95064   0.88113   -0.184189           
         C         C         0.78834   0.96826   0.89963   -0.151244           
         C         C         0.78352   0.99457   0.88296   0.107402  
         C         C         0.79985   0.00275   0.84694   -0.145490           
         C         C         0.82069   0.98544   0.82853   -0.162991           
         C         C         0.81988   0.59235   0.59422   -0.158908           
         C         C         0.80546   0.57224   0.56996   -0.151910           
         C         C         0.80912   0.54453   0.58006   0.107547  
         C         C         0.82709   0.53759   0.61627   -0.141685           
         C         C         0.84207   0.55754   0.64032   -0.180877           
         C         C         0.24091   0.93978   0.58384   -0.166076           
         C         C         0.25274   0.96213   0.56206   -0.151078           
         C         C         0.25065   0.98857   0.57876   0.105452  
         C         C         0.23688   0.99192   0.61873   -0.140713           
         C         C         0.22447   0.96980   0.64043   -0.186791           
         C         C         0.26210   0.01271   0.55355   -0.243279           
         C         C         0.16185   0.67217   0.79685   0.073183  
         C         C         0.13949   0.85520   0.71278   0.071978  
         C         C         0.90613   0.85495   0.79697   0.065661  
         C         C         0.93076   0.67113   0.71796   0.069050  
         C         C         0.68223   0.10230   0.79928   0.067317  
         C         C         0.87568   0.84845   0.80080   -0.140724           
         C         C         0.85465   0.86873   0.80791   -0.131631           
         C         C         0.86324   0.89622   0.81136   0.053975  
         C         C         0.89353   0.90294   0.80612   -0.105865           
         C         C         0.91448   0.88267   0.79903   -0.139511           
         C         C         0.94372   0.64511   0.71499   -0.142040           
         C         C         0.92732   0.62317   0.69857   -0.131366           
         C         C         0.89739   0.62646   0.68476   0.049282  
         C         C         0.88416   0.65235   0.68861   -0.106149           
         C         C         0.90053   0.67414   0.70485   -0.141181           
         C         C         0.17011   0.85290   0.70355   -0.142044           
         C         C         0.18582   0.87473   0.68656   -0.107530           
         C         C         0.17139   0.89978   0.67827   0.050236  
         C         C         0.14111   0.90241   0.68864   -0.132060           
         C         C         0.12540   0.88046   0.70555   -0.143259           
         C         C         0.15338   0.64445   0.79656   -0.141406           
         C         C         0.17423   0.62391   0.80399   -0.106845           
         C         C         0.20453   0.63040   0.81160   0.049173  
         C         C         0.21327   0.65792   0.81013   -0.133238           
         C         C         0.19230   0.67845   0.80302   -0.142943           
         C         C         0.84093   0.91646   0.82288   0.065048  
         C         C         0.22672   0.60993   0.82406   0.067334  
         C         C         0.52062   0.25515   0.71272   0.041841  
         C         C         0.54520   0.27725   0.71301   0.040159  
         C         C         0.53226   0.26770   0.78492   0.537066  
         C         C         0.54856   0.24891   0.81693   -0.512775           
         C         C         0.47083   0.23748   0.68161   0.024899  
         C         C         0.47399   0.21354   0.70611   -0.139104           
         C         C         0.45356   0.19215   0.70119   -0.138496           
         C         C         0.42918   0.19418   0.67211   0.054641  
         C         C         0.42614   0.21834   0.64757   -0.142347           
         C         C         0.44659   0.23949   0.65217   -0.116269           
         C         C         0.49213   0.26195   0.68447   0.207104  
         C         C         0.32776   0.06660   0.61418   0.198055  
         N         N         0.34990   0.08345   0.63264   -0.289089           
         C         C         0.47570   0.28676   0.70166   0.029329  
         C         C         0.45474   0.28405   0.73443   -0.118839           
         C         C         0.43975   0.30674   0.74995   -0.137671           
         C         C         0.44523   0.33302   0.73343   0.053909  
         C         C         0.46635   0.33562   0.70070   -0.142340           
         C         C         0.48118   0.31284   0.68493   -0.127266           
         C         C         0.51384   0.28965   0.80667   -0.519600           
         N         N         0.35690   0.42388   0.81802   -0.291776           
         C         C         0.34426   0.44655   0.83811   0.199590  
         C         C         0.59591   0.29313   0.68419   0.000192  
         C         C         0.62067   0.28938   0.65769   -0.131273           
         C         C         0.64167   0.30993   0.65247   -0.132857           
         C         C         0.63898   0.33510   0.67382   0.060159  
         C         C         0.61433   0.33859   0.70066   -0.131830           
         C         C         0.59310   0.31799   0.70577   -0.130079           
         C         C         0.57331   0.26987   0.68639   0.204686  
         C         C         0.73666   0.46346   0.61238   0.196701  
         N         N         0.71650   0.44526   0.63112   -0.285354           
         C         C         0.58850   0.24390   0.70273   0.026028  
         C         C         0.58329   0.21863   0.68304   -0.128454           
         C         C         0.59800   0.19522   0.69808   -0.138916           
         C         C         0.61853   0.19636   0.73304   0.058489  
         C         C         0.62334   0.22177   0.75298   -0.137532           
         C         C         0.60853   0.24507   0.73819   -0.120721           
         N         N         0.70973   0.10357   0.81256   -0.289357           
         C         C         0.72322   0.08066   0.83203   0.198719  
         O         O         0.51331   0.25133   0.75711   -0.308678           
         O         O         0.56252   0.26468   0.64205   -0.498573           
         O         O         0.55386   0.28037   0.75738   -0.310465           
         O         O         0.50145   0.26840   0.64126   -0.523861           
         C         C         0.30905   0.07548   0.57967   -0.185453           
         C         C         0.28783   0.05802   0.56140   -0.148231           
         C         C         0.28450   0.03118   0.57643   0.105245  
         C         C         0.30331   0.02230   0.61053   -0.145220           
         C         C         0.32488   0.03955   0.62882   -0.163571           
         C         C         0.75402   0.45653   0.57660   -0.185619           
         C         C         0.77279   0.47576   0.55802   -0.151924           
         C         C         0.77502   0.50232   0.57435   0.105699  
         C         C         0.75759   0.50922   0.60986   -0.143356           
         C         C         0.73839   0.49027   0.62824   -0.161315           
         C         C         0.74361   0.08556   0.86631   -0.160124           
         C         C         0.75617   0.06394   0.88975   -0.153260           
         C         C         0.74963   0.03684   0.87898   0.108021  
         C         C         0.73089   0.03201   0.84280   -0.142090           
         C         C         0.71773   0.05346   0.81960   -0.184035           
         C         C         0.32589   0.44134   0.87348   -0.161728           
         C         C         0.31386   0.46279   0.89677   -0.152448           
         C         C         0.31896   0.48998   0.88493   0.106957  
         C         C         0.33598   0.49507   0.84814   -0.139947           
         C         C         0.34860   0.47382   0.82503   -0.184532           
         C         C         0.30682   0.51311   0.91137   -0.243598           
         C         C         0.79458   0.52298   0.55187   -0.243739           
         C         C         0.40731   0.17187   0.66663   0.072197  
         C         C         0.42907   0.35695   0.74982   0.071429  
         C         C         0.66110   0.35698   0.66696   0.067794  
         C         C         0.63498   0.17194   0.74837   0.068681  
         C         C         0.38367   0.42550   0.80353   0.067777  
         H         H         0.89328   0.58446   0.66205   0.067423  
         H         H         0.74364   0.00116   0.91800   0.107249  
         H         H         0.77366   0.02186   0.93459   0.110162  
         H         H         0.69825   0.32971   0.65710   0.111833  
         H         H         0.73401   0.36626   0.63979   0.109679  
         H         H         0.66625   0.42660   0.65881   0.116384  
         H         H         0.62982   0.39002   0.67547   0.111342  
         H         H         0.59821   0.14392   0.73893   0.112056  
         H         H         0.62597   0.10375   0.76734   0.105693  
         H         H         0.70377   0.15334   0.78969   0.116839  
         H         H         0.67603   0.19386   0.76109   0.111768  
         H         H         0.38730   0.33558   0.75748   0.112286  
         H         H         0.36067   0.37545   0.78796   0.116615  
         H         H         0.43977   0.42405   0.77520   0.105283  
         H         H         0.46668   0.38433   0.74588   0.106818  
         H         H         0.43979   0.13943   0.67232   0.108131  
         H         H         0.40300   0.10229   0.65768   0.116542  
         H         H         0.33287   0.16178   0.64602   0.106921  
         H         H         0.36936   0.19879   0.66064   0.111342  
         H         H         0.74607   0.41252   0.62649   0.067158  
         H         H         0.32086   0.11668   0.63149   0.063067  
         H         H         0.17379   0.94171   0.65508   0.065958  
         H         H         0.03828   0.73445   0.76695   0.052167  
         H         H         0.03091   0.79484   0.76664   0.050589  
         H         H         0.00401   0.73106   0.67253   0.145654  
         H         H         0.03128   0.73478   0.63151   0.148917  
         H         H         -0.00011  0.75711   0.63232   0.146818  
         H         H         0.07474   0.71028   0.73770   0.115656  
         H         H         0.11136   0.67322   0.74552   0.105468  
         H         H         0.16167   0.72058   0.83827   0.108797  
         H         H         0.12468   0.75782   0.83060   0.120027  
         H         H         0.11759   0.76244   0.71763   0.114760  
         H         H         0.14487   0.80227   0.68902   0.107820  
         H         H         0.09625   0.85489   0.77316   0.106219  
         H         H         0.06983   0.81469   0.80262   0.109556  
         H         H         0.06817   0.77608   0.63666   0.149417  
         H         H         0.06285   0.80046   0.67822   0.145948  
         H         H         0.03631   0.79782   0.63431   0.145454  
         H         H         0.94256   0.76737   0.82339   0.118001  
         H         H         0.90555   0.80408   0.83194   0.112852  
         H         H         0.95758   0.85646   0.75082   0.111167  
         H         H         0.99474   0.82015   0.74305   0.119350  
         H         H         -0.00032  0.71464   0.81001   0.119601  
         H         H         0.97337   0.67365   0.78310   0.109781  
         H         H         0.92685   0.72279   0.68774   0.109357  
         H         H         0.95350   0.76358   0.71440   0.117498  
         H         H         0.00153   0.77790   0.84190   0.366341  
         H         H         0.04660   0.76138   0.82859   0.330585  
         H         H         0.25776   0.59682   0.89600   0.110270  
         H         H         0.29495   0.56570   0.93015   0.107840  
         H         H         0.26819   0.50221   0.84238   0.110908  
         H         H         0.23051   0.53343   0.80832   0.119300  
         H         H         0.81287   0.93060   0.89520   0.110454  
         H         H         0.77612   0.96163   0.92786   0.105610  
         H         H         0.79618   0.02301   0.83340   0.111473  
         H         H         0.83346   0.99200   0.80083   0.120678  
         H         H         0.81706   0.61384   0.58641   0.118149  
         H         H         0.79110   0.57806   0.54259   0.104083  
         H         H         0.82923   0.51625   0.62566   0.114380  
         H         H         0.85568   0.55176   0.66847   0.112447  
         H         H         0.24250   0.91931   0.57079   0.118394  
         H         H         0.26374   0.95914   0.53139   0.108437  
         H         H         0.23599   0.01213   0.63300   0.113845  
         H         H         0.21411   0.97263   0.67159   0.111592  
         H         H         0.24292   0.02537   0.54304   0.100457  
         H         H         0.27188   0.00527   0.52344   0.112479  
         H         H         0.66871   0.08372   0.80303   0.066917  
         H         H         0.86853   0.82734   0.79795   0.111235  
         H         H         0.83123   0.86333   0.81123   0.107449  
         H         H         0.90009   0.92422   0.80890   0.120621  
         H         H         0.93794   0.88812   0.79661   0.112996  
         H         H         0.96707   0.64233   0.72441   0.112360  
         H         H         0.93789   0.60331   0.69556   0.108213  
         H         H         0.86097   0.65473   0.67813   0.115487  
         H         H         0.88987   0.69392   0.70807   0.111508  
         H         H         0.18155   0.83378   0.71066   0.113345  
         H         H         0.20940   0.87297   0.67932   0.118858  
         H         H         0.12979   0.92172   0.68242   0.106009  
         H         H         0.10176   0.88254   0.71222   0.109816  
         H         H         0.12991   0.63926   0.79208   0.110978  
         H         H         0.16759   0.60259   0.80525   0.117255  
         H         H         0.23672   0.66310   0.81528   0.107849  
         H         H         0.19939   0.69964   0.80204   0.112476  
         H         H         0.81850   0.90839   0.82920   0.065185  
         H         H         0.24949   0.61771   0.83007   0.064589  
         H         H         0.52966   0.23587   0.70041   0.054859  
         H         H         0.53615   0.29655   0.69997   0.050455  
         H         H         0.56097   0.23340   0.79933   0.147335  
         H         H         0.53233   0.23885   0.83776   0.149189  
         H         H         0.56425   0.26056   0.83734   0.147451  
         H         H         0.49205   0.21154   0.72994   0.116421  
         H         H         0.45621   0.17386   0.72091   0.105863  
         H         H         0.40789   0.22009   0.62396   0.109174  
         H         H         0.44417   0.25779   0.63242   0.122549  
         H         H         0.45013   0.26396   0.74770   0.114877  
         H         H         0.42383   0.30421   0.77572   0.106850  
         H         H         0.47046   0.35554   0.68641   0.106251  
         H         H         0.49644   0.31493   0.65828   0.110675  
         H         H         0.52821   0.30163   0.82858   0.145922  
         H         H         0.49601   0.28020   0.82534   0.148839  
         H         H         0.50365   0.30327   0.78235   0.144437  
         H         H         0.62317   0.27012   0.64087   0.119756  
         H         H         0.66019   0.30670   0.63094   0.110258  
         H         H         0.61183   0.35749   0.71847   0.109694  
         H         H         0.57464   0.32116   0.72742   0.122317  
         H         H         0.56826   0.21735   0.65506   0.120675  
         H         H         0.59419   0.17594   0.68166   0.108952  
         H         H         0.63864   0.22311   0.78070   0.109123  
         H         H         0.61262   0.26447   0.75405   0.118146  
         H         H         0.56359   0.28209   0.62696   0.363852  
         H         H         0.52176   0.26124   0.63790   0.331525  
         H         H         0.31192   0.09592   0.56662   0.110665  
         H         H         0.27376   0.06517   0.53452   0.103945  
         H         H         0.30107   0.00159   0.62277   0.111486  
         H         H         0.33954   0.03250   0.65504   0.119019  
         H         H         0.75208   0.43623   0.56285   0.110472  
         H         H         0.78565   0.47024   0.52989   0.109654  
         H         H         0.75902   0.52973   0.62297   0.112722  
         H         H         0.72461   0.49568   0.65540   0.119576  
         H         H         0.74858   0.10660   0.87466   0.118587  
         H         H         0.77124   0.06811   0.91702   0.109561  
         H         H         0.72665   0.01109   0.83282   0.113323  
         H         H         0.70343   0.04933   0.79151   0.112664  
         H         H         0.32203   0.42023   0.88270   0.117383  
         H         H         0.30033   0.45843   0.92478   0.105694  
         H         H         0.33929   0.51603   0.83759   0.113495  
         H         H         0.36154   0.47814   0.79642   0.111997  
         H         H         0.32558   0.52568   0.92338   0.108341  
         H         H         0.29651   0.50452   0.94044   0.106186  
         H         H         0.78120   0.53330   0.52633   0.099008  
         H         H         0.81202   0.51180   0.53473   0.112337  
         H         H         0.39719   0.44414   0.80702   0.066414 

