
##########################################################################
#               Crystallographic Information Format file
#               Produced by PyCifRW module
#
#  This is a CIF file.  CIF has been adopted by the International
#  Union of Crystallography as the standard for data archiving and
#  transmission.
#
#  For information on this file format, follow the CIF links at
#  http://www.iucr.org
##########################################################################

data_image0

_cell_length_a                          40.7218
_cell_length_b                          40.4209
_cell_length_c                          40.6568
_cell_angle_alpha                       90.5196
_cell_angle_beta                        90.396
_cell_angle_gamma                       90.1193
_symmetry_space_group_name_H-M          'P 1'
_space_group_name_Hall                  'P 1'
loop_
  _atom_site_type_symbol
  _atom_site_label
  _atom_site_fract_x
  _atom_site_fract_y
  _atom_site_fract_z
  _atom_site_charge
         N         N         0.26341   0.33028   0.94049   -0.288413           
         C         C         0.24811   0.30280   0.93576   0.063125  
         C         C         0.25810   0.35024   0.97014   0.267474  
         B         B         0.27491   0.22718   0.81545   0.745811  
         O         O         0.29519   0.80644   0.74122   -0.571218           
         C         C         0.62521   0.47620   0.21299   -0.305677           
         H         H         0.64129   0.48046   0.19185   0.113954  
         H         H         0.61045   0.45405   0.20733   0.102559  
         H         H         0.93639   0.52280   0.74797   0.105736  
         C         C         0.25223   0.70543   0.60135   0.101849  
         C         C         0.26646   0.74768   0.65600   -0.364809           
         C         C         0.23019   0.73058   0.61036   -0.279911           
         C         C         0.23805   0.75141   0.63671   0.328618  
         C         C         0.28141   0.70133   0.61961   -0.144064           
         C         C         0.28792   0.72183   0.64646   -0.021139           
         H         H         0.23074   0.29208   0.95336   0.072874  
         H         H         0.20746   0.73443   0.59672   0.139369  
         F         F         0.21668   0.77658   0.64337   -0.153076           
         H         H         0.29832   0.68187   0.61224   0.119302  
         H         H         0.31015   0.71846   0.66105   0.116518  
         N         N         0.76377   0.83419   0.43901   -0.290559           
         C         C         0.74223   0.81511   0.42575   0.068592  
         C         C         0.75568   0.85335   0.46862   0.270406  
         B         B         0.78037   0.73093   0.31509   0.749510  
         O         O         0.79373   0.30181   0.24346   -0.572269           
         C         C         0.12238   0.97429   0.71339   -0.302443           
         H         H         0.13811   0.97798   0.69191   0.116337  
         H         H         0.10682   0.95262   0.70810   0.107539  
         H         H         0.43474   0.02056   0.24622   0.102558  
         C         C         0.75399   0.20998   0.09721   0.100274  
         C         C         0.76498   0.24433   0.15774   -0.366329           
         C         C         0.73279   0.23554   0.10702   -0.278000           
         C         C         0.73834   0.25138   0.13708   0.326807  
         C         C         0.78033   0.20118   0.11799   -0.145543           
         C         C         0.78579   0.21833   0.14729   -0.020313           
         H         H         0.71698   0.81223   0.43495   0.072581  
         H         H         0.71213   0.24312   0.09176   0.138992  
         F         F         0.71655   0.27510   0.14655   -0.151585           
         H         H         0.79641   0.18124   0.11013   0.117220  
         H         H         0.80674   0.21213   0.16280   0.116572  
         N         N         0.23706   0.66208   0.43898   -0.294192           
         C         C         0.25594   0.68558   0.42965   0.069382  
         C         C         0.24446   0.64411   0.46947   0.270018  
         B         B         0.22728   0.76359   0.31181   0.746468  
         O         O         0.20279   0.19829   0.23996   -0.572464           
         C         C         0.87630   0.52730   0.71608   -0.303826           
         H         H         0.86109   0.52484   0.69379   0.114871  
         H         H         0.89151   0.54957   0.71324   0.105456  
         H         H         0.56472   0.47851   0.24316   0.106130  
         C         C         0.25265   0.29548   0.10222   0.100098  
         C         C         0.23520   0.25431   0.15580   -0.363647           
         C         C         0.27327   0.26943   0.11174   -0.277253           
         C         C         0.26401   0.24919   0.13764   0.325715  
         C         C         0.22355   0.30139   0.11976   -0.143251           
         C         C         0.21543   0.28139   0.14603   -0.021943           
         H         H         0.27786   0.69367   0.44361   0.069866  
         H         H         0.29619   0.26458   0.09901   0.138968  
         F         F         0.28475   0.22360   0.14504   -0.154184           
         H         H         0.20790   0.32170   0.11211   0.118370  
         H         H         0.19316   0.28628   0.15989   0.115851  
         N         N         0.73699   0.16549   0.93648   -0.295069           
         C         C         0.75665   0.18796   0.92637   0.069528  
         C         C         0.74493   0.14683   0.96641   0.272700  
         B         B         0.72667   0.26664   0.80919   0.748752  
         O         O         0.70833   0.70140   0.74661   -0.572836           
         C         C         0.37448   0.02562   0.21427   -0.305913           
         H         H         0.35895   0.02242   0.19228   0.114635  
         H         H         0.39037   0.04718   0.21007   0.104830  
         H         H         0.06231   0.97704   0.74439   0.104330  
         C         C         0.74320   0.79320   0.60073   0.103332  
         C         C         0.73129   0.75193   0.65590   -0.360947           
         C         C         0.76754   0.77171   0.61225   -0.278933           
         C         C         0.76080   0.75101   0.63838   0.327300  
         C         C         0.71247   0.79377   0.61636   -0.146111           
         C         C         0.70723   0.77411   0.64373   -0.024418           
         H         H         0.77961   0.19487   0.93922   0.069400  
         H         H         0.79156   0.77077   0.60076   0.138584  
         F         F         0.78516   0.72973   0.64699   -0.152899           
         H         H         0.69349   0.81025   0.60722   0.120510  
         H         H         0.68403   0.77549   0.65681   0.115236  
         N         N         0.73011   0.82929   0.55550   -0.296389           
         C         C         0.75177   0.81471   0.57318   0.067443  
         C         C         0.74117   0.85099   0.52894   0.270282  
         B         B         0.72379   0.73236   0.68782   0.748876  
         O         O         0.70651   0.30312   0.75492   -0.570938           
         C         C         0.37356   0.97773   0.28676   -0.299473           
         H         H         0.35864   0.98229   0.30873   0.115660  
         H         H         0.38836   0.95556   0.29151   0.109951  
         H         H         0.06218   0.02022   0.75266   0.104578  
         C         C         0.74954   0.20681   0.89638   0.099035  
         C         C         0.73611   0.24586   0.83987   -0.363092           
         C         C         0.77011   0.23337   0.88838   -0.276543           
         C         C         0.76291   0.25228   0.86086   0.327497  
         C         C         0.72240   0.19936   0.87595   -0.144794           
         C         C         0.71613   0.21848   0.84839   -0.022048           
         H         H         0.77834   0.81713   0.56906   0.069424  
         H         H         0.79124   0.23974   0.90371   0.137450  
         F         F         0.78336   0.27833   0.85495   -0.153183           
         H         H         0.70664   0.17871   0.88242   0.120502  
         H         H         0.69509   0.21284   0.83263   0.115958  
         N         N         0.24005   0.33574   0.06131   -0.295276           
         C         C         0.26098   0.31541   0.07332   0.069382  
         C         C         0.24771   0.35412   0.03131   0.273715  
         B         B         0.22384   0.23347   0.18560   0.750413  
         O         O         0.20963   0.79862   0.25643   -0.575064           
         C         C         0.87699   0.47538   0.78571   -0.309078           
         H         H         0.86203   0.47780   0.80797   0.113908  
         H         H         0.89224   0.45317   0.78856   0.104740  
         H         H         0.56427   0.52154   0.25195   0.106875  
         C         C         0.24939   0.70403   0.39918   0.101252  
         C         C         0.23632   0.74258   0.34230   -0.364915           
         C         C         0.27074   0.72978   0.39037   -0.278575           
         C         C         0.26377   0.74832   0.36249   0.326655  
         C         C         0.22180   0.69712   0.37916   -0.146094           
         C         C         0.21562   0.71606   0.35146   -0.019708           
         H         H         0.28536   0.31095   0.06262   0.071216  
         H         H         0.29233   0.73577   0.40517   0.139787  
         F         F         0.28500   0.77329   0.35503   -0.151655           
         H         H         0.20547   0.67712   0.38616   0.119421  
         H         H         0.19418   0.71095   0.33610   0.116735  
         N         N         0.76320   0.16579   0.05855   -0.293223           
         C         C         0.74827   0.19283   0.06547   0.065498  
         C         C         0.75679   0.14783   0.02764   0.273287  
         B         B         0.77396   0.26496   0.18888   0.747720  
         O         O         0.79971   0.69491   0.26007   -0.570480           
         C         C         0.12169   0.02255   0.78644   -0.307634           
         H         H         0.13637   0.01851   0.80881   0.115816  
         H         H         0.10669   0.04475   0.79069   0.105421  
         H         H         0.43241   0.97748   0.25384   0.106193  
         C         C         0.75102   0.79455   0.39717   0.100025  
         C         C         0.76945   0.75263   0.34443   -0.365140           
         C         C         0.73021   0.76859   0.38710   -0.276173           
         C         C         0.74015   0.74789   0.36158   0.326054  
         C         C         0.78092   0.79983   0.38082   -0.145097           
         C         C         0.78955   0.77947   0.35470   -0.020520           
         H         H         0.73037   0.20460   0.04887   0.070610  
         H         H         0.70699   0.76396   0.39929   0.139431  
         F         F         0.72001   0.72191   0.35340   -0.152697           
         H         H         0.79670   0.81991   0.38936   0.117717  
         H         H         0.81235   0.78365   0.34154   0.117491  
         N         N         0.26650   0.66628   0.55902   -0.295557           
         C         C         0.24445   0.68429   0.57267   0.070235  
         C         C         0.25759   0.64537   0.53048   0.273208  
         B         B         0.27550   0.76891   0.68681   0.746437  
         O         O         0.29635   0.19203   0.76038   -0.568846           
         C         C         0.62325   0.52426   0.28624   -0.305032           
         H         H         0.63757   0.52053   0.30888   0.115906  
         H         H         0.60791   0.54626   0.29019   0.105151  
         H         H         0.93582   0.47938   0.75379   0.105902  
         C         C         0.25364   0.28375   0.90526   0.101658  
         C         C         0.26527   0.24706   0.84667   -0.365021           
         C         C         0.23277   0.25735   0.89634   -0.276671           
         C         C         0.23859   0.24007   0.86715   0.324958  
         C         C         0.28008   0.29204   0.88481   -0.144273           
         C         C         0.28579   0.27382   0.85642   -0.022295           
         H         H         0.21877   0.68547   0.56402   0.068388  
         H         H         0.21213   0.25037   0.91165   0.139327  
         F         F         0.21699   0.21534   0.85849   -0.154178           
         H         H         0.29570   0.31269   0.89227   0.116729  
         H         H         0.30666   0.27972   0.84092   0.117331  
         N         N         0.94093   0.26372   0.33156   -0.294423           
         C         C         0.92757   0.24148   0.31324   0.069509  
         C         C         0.96964   0.25588   0.35204   0.272253  
         B         B         0.81207   0.27449   0.23344   0.745278  
         O         O         0.74509   0.29342   0.79879   -0.572250           
         C         C         0.21391   0.62286   0.47664   -0.306897           
         H         H         0.19255   0.63893   0.48064   0.114733  
         H         H         0.20860   0.60756   0.45478   0.104110  
         H         H         0.74834   0.93268   0.52582   0.106262  
         C         C         0.59529   0.25637   0.71151   0.101458  
         C         C         0.65529   0.26840   0.74624   -0.364136           
         C         C         0.60574   0.23468   0.73630   -0.278656           
         C         C         0.63521   0.24113   0.75281   0.326714  
         C         C         0.61475   0.28422   0.70431   -0.143908           
         C         C         0.64401   0.28982   0.72130   -0.022960           
         H         H         0.93627   0.21572   0.31150   0.072573  
         H         H         0.59127   0.21301   0.74268   0.139439  
         F         F         0.64484   0.21970   0.77670   -0.151032           
         H         H         0.60629   0.30093   0.68530   0.118737  
         H         H         0.65898   0.31129   0.71558   0.116458  
         N         N         0.44292   0.76635   0.82916   -0.296460           
         C         C         0.42357   0.74390   0.81774   0.065213  
         C         C         0.47015   0.75772   0.85114   0.272199  
         B         B         0.31360   0.77917   0.73149   0.751903  
         O         O         0.24609   0.79041   0.30200   -0.570143           
         C         C         0.71545   0.12373   0.97212   -0.311692           
         H         H         0.69305   0.13854   0.97501   0.114546  
         H         H         0.71212   0.10827   0.94997   0.103594  
         H         H         0.25081   0.43571   0.01819   0.106693  
         C         C         0.10266   0.75435   0.20464   0.101393  
         C         C         0.15898   0.76446   0.24527   -0.364743           
         C         C         0.10918   0.73310   0.23090   -0.279167           
         C         C         0.13649   0.73882   0.25077   0.329350  
         C         C         0.12423   0.78075   0.19840   -0.143317           
         C         C         0.15178   0.78531   0.21826   -0.021525           
         H         H         0.42606   0.71740   0.82315   0.072096  
         H         H         0.09272   0.71268   0.23634   0.138907  
         F         F         0.14019   0.71825   0.27686   -0.152310           
         H         H         0.11869   0.79737   0.17823   0.120343  
         H         H         0.16856   0.80571   0.21366   0.115589  
         N         N         0.43507   0.23533   0.66687   -0.292639           
         C         C         0.42461   0.25599   0.68849   0.067394  
         C         C         0.46473   0.24352   0.64822   0.271280  
         B         B         0.31241   0.22105   0.77014   0.746441  
         O         O         0.23999   0.20496   0.19506   -0.573617           
         C         C         0.71269   0.87512   0.52261   -0.298150           
         H         H         0.69031   0.86092   0.51705   0.117366  
         H         H         0.70804   0.88975   0.54499   0.108854  
         H         H         0.24465   0.56142   0.48062   0.105259  
         C         C         0.09789   0.24786   0.28941   0.100000  
         C         C         0.15467   0.23574   0.25055   -0.364851           
         C         C         0.10689   0.27005   0.26461   -0.277145           
         C         C         0.13497   0.26380   0.24626   0.327598  
         C         C         0.11742   0.21976   0.29500   -0.141881           
         C         C         0.14483   0.21391   0.27576   -0.023178           
         H         H         0.43675   0.27980   0.69406   0.069970  
         H         H         0.09232   0.29200   0.25959   0.138681  
         F         F         0.14333   0.28666   0.22326   -0.154238           
         H         H         0.11026   0.20293   0.31441   0.118448  
         H         H         0.15968   0.19194   0.27971   0.117136  
         N         N         0.94349   0.73628   0.17095   -0.290967           
         C         C         0.93273   0.75736   0.19201   0.068281  
         C         C         0.97144   0.74436   0.14991   0.269277  
         B         B         0.81755   0.72276   0.27016   0.746293  
         O         O         0.74166   0.70510   0.69822   -0.571363           
         C         C         0.21779   0.37633   0.02445   -0.310474           
         H         H         0.19574   0.36082   0.02170   0.116005  
         H         H         0.21398   0.39251   0.04594   0.104022  
         H         H         0.74848   0.06481   0.97519   0.108466  
         C         C         0.59988   0.74937   0.79136   0.100030  
         C         C         0.65887   0.73764   0.75625   -0.364005           
         C         C         0.61054   0.77194   0.76766   -0.276931           
         C         C         0.63986   0.76608   0.75134   0.326597  
         C         C         0.61882   0.72107   0.79789   -0.144751           
         C         C         0.64746   0.71539   0.78042   -0.023816           
         H         H         0.94380   0.78194   0.19634   0.071117  
         H         H         0.59649   0.79405   0.76209   0.139891  
         F         F         0.65000   0.78984   0.72995   -0.153192           
         H         H         0.61026   0.70392   0.81643   0.117982  
         H         H         0.66177   0.69314   0.78492   0.116394  
         N         N         0.56187   0.73991   0.83494   -0.293943           
         C         C         0.56912   0.75598   0.80893   0.069579  
         C         C         0.53123   0.74665   0.85248   0.271302  
         B         B         0.68943   0.72787   0.73580   0.752086  
         O         O         0.76291   0.70324   0.30509   -0.573543           
         C         C         0.28874   0.37255   0.97449   -0.301509           
         H         H         0.31071   0.35732   0.97837   0.115172  
         H         H         0.29241   0.38635   0.95164   0.107427  
         H         H         0.75613   0.06494   0.01825   0.106757  
         C         C         0.90369   0.74939   0.21187   0.099332  
         C         C         0.84765   0.73355   0.24977   -0.364158           
         C         C         0.89193   0.77201   0.23543   -0.274819           
         C         C         0.86443   0.76368   0.25384   0.323969  
         C         C         0.88722   0.71909   0.20692   -0.144220           
         C         C         0.85975   0.71165   0.22537   -0.023673           
         H         H         0.55350   0.77541   0.79833   0.070976  
         H         H         0.90387   0.79582   0.23943   0.138550  
         F         F         0.85348   0.78645   0.27642   -0.154123           
         H         H         0.89663   0.70218   0.18833   0.117878  
         H         H         0.84674   0.68839   0.22135   0.119780  
         N         N         0.06050   0.23644   0.33350   -0.294080           
         C         C         0.06812   0.25435   0.30879   0.068098  
         C         C         0.03064   0.24391   0.35235   0.272754  
         B         B         0.18560   0.22642   0.23024   0.749080  
         O         O         0.25858   0.19882   0.80518   -0.571111           
         C         C         0.78668   0.87330   0.47765   -0.309630           
         H         H         0.80724   0.85626   0.48190   0.114937  
         H         H         0.79327   0.88875   0.45660   0.103545  
         H         H         0.25291   0.56312   0.52353   0.105519  
         C         C         0.39553   0.24847   0.70827   0.100462  
         C         C         0.34169   0.23236   0.74894   -0.365064           
         C         C         0.38754   0.26902   0.73508   -0.276654           
         C         C         0.36123   0.26036   0.75491   0.325913  
         C         C         0.37645   0.22013   0.70146   -0.142454           
         C         C         0.35013   0.21252   0.72143   -0.021984           
         H         H         0.05329   0.27546   0.30040   0.069699  
         H         H         0.40207   0.29092   0.74105   0.138947  
         F         F         0.35501   0.28004   0.78162   -0.152862           
         H         H         0.38330   0.20442   0.68080   0.118507  
         H         H         0.33530   0.19058   0.71655   0.117253  
         N         N         0.06236   0.76792   0.16322   -0.296791           
         C         C         0.07262   0.74822   0.18552   0.070319  
         C         C         0.03168   0.75901   0.14592   0.271490  
         B         B         0.19009   0.77233   0.26634   0.748566  
         O         O         0.25581   0.79435   0.69840   -0.571716           
         C         C         0.78735   0.12616   0.02156   -0.304474           
         H         H         0.80901   0.14193   0.01788   0.114797  
         H         H         0.79190   0.11157   0.04379   0.104619  
         H         H         0.25711   0.43328   0.97513   0.106496  
         C         C         0.39610   0.75279   0.79592   0.102402  
         C         C         0.34338   0.76955   0.75328   -0.362396           
         C         C         0.38255   0.72880   0.77468   -0.276407           
         C         C         0.35721   0.73787   0.75363   0.322509  
         C         C         0.38305   0.78502   0.79629   -0.146484           
         C         C         0.35688   0.79289   0.77579   -0.022289           
         H         H         0.05933   0.72556   0.19237   0.067127  
         H         H         0.39176   0.70357   0.77380   0.140097  
         F         F         0.34497   0.71371   0.73323   -0.155674           
         H         H         0.39372   0.80304   0.81331   0.118308  
         H         H         0.34600   0.81746   0.77693   0.115579  
         N         N         0.55427   0.26807   0.67015   -0.294473           
         C         C         0.56476   0.24900   0.69297   0.068180  
         C         C         0.52508   0.25876   0.65042   0.272956  
         B         B         0.68780   0.27626   0.76503   0.748635  
         O         O         0.75650   0.29287   0.19839   -0.573249           
         C         C         0.28698   0.62221   0.52428   -0.301358           
         H         H         0.30918   0.63699   0.52005   0.115775  
         H         H         0.29152   0.60731   0.54633   0.107911  
         H         H         0.75756   0.93565   0.48335   0.103773  
         C         C         0.89894   0.24979   0.29266   0.100242  
         C         C         0.84373   0.26574   0.25287   -0.363676           
         C         C         0.88929   0.22854   0.26688   -0.278139           
         C         C         0.86264   0.23731   0.24728   0.326754  
         C         C         0.88131   0.27918   0.29842   -0.144104           
         C         C         0.85417   0.28663   0.27908   -0.023263           
         H         H         0.55242   0.22573   0.69969   0.069304  
         H         H         0.90236   0.20563   0.26172   0.139690  
         F         F         0.85498   0.21661   0.22165   -0.151848           
         H         H         0.88929   0.29538   0.31843   0.117390  
         H         H         0.84000   0.30893   0.28392   0.116842  
         N         N         0.33057   0.94241   0.26478   -0.295746           
         C         C         0.31218   0.92844   0.24290   0.071893  
         C         C         0.35091   0.97142   0.25670   0.270963  
         B         B         0.23675   0.80871   0.27467   0.748416  
         O         O         0.80838   0.74006   0.29815   -0.570698           
         C         C         0.47284   0.21312   0.62660   -0.305518           
         H         H         0.47652   0.19131   0.64208   0.115127  
         H         H         0.45165   0.20794   0.61045   0.104943  
         H         H         0.52020   0.74746   0.93428   0.106119  
         C         C         0.71094   0.59766   0.25574   0.099724  
         C         C         0.75060   0.65451   0.26856   -0.364378           
         C         C         0.73699   0.60563   0.23471   -0.278528           
         C         C         0.75568   0.63382   0.24131   0.326085  
         C         C         0.70442   0.61837   0.28295   -0.144576           
         C         C         0.72400   0.64595   0.28916   -0.019266           
         H         H         0.30937   0.93742   0.21753   0.070749  
         H         H         0.74256   0.59032   0.21333   0.139478  
         F         F         0.78007   0.64155   0.21988   -0.151322           
         H         H         0.68403   0.61204   0.29882   0.118221  
         H         H         0.71912   0.66179   0.31036   0.116104  
         N         N         0.83490   0.44021   0.76194   -0.296215           
         C         C         0.81241   0.43025   0.74192   0.071503  
         C         C         0.85431   0.47021   0.75545   0.274280  
         B         B         0.73498   0.31180   0.77177   0.751387  
         O         O         0.30174   0.23838   0.79756   -0.571046           
         C         C         0.97777   0.71342   0.12836   -0.298621           
         H         H         0.98365   0.69233   0.14418   0.115348  
         H         H         0.95515   0.70716   0.11477   0.107837  
         H         H         0.02153   0.24811   0.43447   0.105260  
         C         C         0.20635   0.09706   0.75141   0.099726  
         C         C         0.24828   0.15105   0.76701   -0.364110           
         C         C         0.22898   0.10847   0.72813   -0.277436           
         C         C         0.24961   0.13476   0.73654   0.324838  
         C         C         0.20471   0.11253   0.78249   -0.141714           
         C         C         0.22507   0.13909   0.78979   -0.026374           
         H         H         0.80588   0.44306   0.71898   0.070106  
         H         H         0.23082   0.09715   0.70385   0.139754  
         F         F         0.27155   0.14498   0.71339   -0.153990           
         H         H         0.18698   0.10328   0.80002   0.117314  
         H         H         0.22377   0.15151   0.81359   0.120487  
         N         N         0.66599   0.43970   0.23635   -0.292485           
         C         C         0.68657   0.42858   0.25755   0.068161  
         C         C         0.64638   0.46932   0.24382   0.271550  
         B         B         0.76603   0.31133   0.22591   0.750228  
         O         O         0.19653   0.24413   0.20335   -0.572286           
         C         C         0.52509   0.71610   0.87404   -0.311556           
         H         H         0.52230   0.69398   0.85834   0.113239  
         H         H         0.54711   0.71248   0.88932   0.102702  
         H         H         0.47652   0.24410   0.56649   0.104377  
         C         C         0.29234   0.10300   0.24888   0.098748  
         C         C         0.25065   0.15700   0.23277   -0.363738           
         C         C         0.26644   0.11196   0.26978   -0.274611           
         C         C         0.24598   0.13809   0.26113   0.322677  
         C         C         0.29749   0.12105   0.21990   -0.142812           
         C         C         0.27722   0.14752   0.21243   -0.021457           
         H         H         0.69100   0.44013   0.28186   0.071127  
         H         H         0.26202   0.09849   0.29238   0.139253  
         F         F         0.22022   0.14498   0.28154   -0.153200           
         H         H         0.31740   0.11360   0.20380   0.118908  
         H         H         0.28147   0.16177   0.19026   0.116593  
         N         N         0.16294   0.93768   0.73646   -0.290806           
         C         C         0.18358   0.92715   0.75789   0.068771  
         C         C         0.14375   0.96740   0.74386   0.268845  
         B         B         0.26582   0.81338   0.72545   0.748400  
         O         O         0.69738   0.74331   0.70662   -0.573665           
         C         C         0.02433   0.21403   0.37482   -0.300594           
         H         H         0.02061   0.19159   0.35981   0.115839  
         H         H         0.04622   0.20994   0.39018   0.106729  
         H         H         0.97391   0.74420   0.06834   0.104486  
         C         C         0.79059   0.59960   0.75018   0.100631  
         C         C         0.75311   0.65754   0.73690   -0.364871           
         C         C         0.76743   0.61113   0.77296   -0.276024           
         C         C         0.74965   0.63964   0.76612   0.326240  
         C         C         0.79483   0.61684   0.72058   -0.142701           
         C         C         0.77643   0.64495   0.71429   -0.027230           
         H         H         0.18812   0.93945   0.78180   0.070533  
         H         H         0.76352   0.59862   0.79619   0.138288  
         F         F         0.72831   0.65003   0.78986   -0.153689           
         H         H         0.81280   0.60760   0.70313   0.118141  
         H         H         0.77966   0.65827   0.69139   0.120770  
         N         N         0.83472   0.56202   0.73963   -0.292498           
         C         C         0.81023   0.57000   0.75770   0.069257  
         C         C         0.85413   0.53218   0.74634   0.272873  
         B         B         0.73362   0.68913   0.72743   0.749354  
         O         O         0.30460   0.76157   0.70343   -0.571822           
         C         C         0.97610   0.28673   0.37363   -0.308664           
         H         H         0.97998   0.30825   0.35779   0.115722  
         H         H         0.95405   0.29181   0.38826   0.102633  
         H         H         0.01631   0.75326   0.06413   0.103972  
         C         C         0.20324   0.89753   0.75109   0.098332  
         C         C         0.24374   0.84240   0.73665   -0.362762           
         C         C         0.22806   0.88821   0.77323   -0.276002           
         C         C         0.24774   0.86117   0.76564   0.325697  
         C         C         0.19792   0.87881   0.72218   -0.142176           
         C         C         0.21777   0.85189   0.71542   -0.024010           
         H         H         0.80249   0.55597   0.77944   0.068987  
         H         H         0.23237   0.90192   0.79602   0.139220  
         F         F         0.27160   0.85329   0.78809   -0.153432           
         H         H         0.17823   0.88628   0.70566   0.118332  
         H         H         0.21391   0.83738   0.69303   0.116558  
         N         N         0.33359   0.06260   0.23634   -0.296464           
         C         C         0.31290   0.07422   0.25708   0.071163  
         C         C         0.35278   0.03287   0.24437   0.273474  
         B         B         0.22995   0.18753   0.22266   0.749860  
         O         O         0.80162   0.25564   0.20672   -0.570387           
         C         C         0.47544   0.78800   0.87399   -0.294463           
         H         H         0.47903   0.81023   0.85910   0.116460  
         H         H         0.45332   0.79207   0.88882   0.109450  
         H         H         0.51894   0.25388   0.56850   0.104844  
         C         C         0.70629   0.39891   0.25018   0.099506  
         C         C         0.74537   0.34233   0.23530   -0.364850           
         C         C         0.73154   0.38921   0.27174   -0.276641           
         C         C         0.75041   0.36163   0.26372   0.326271  
         C         C         0.70037   0.38013   0.22142   -0.144781           
         C         C         0.71933   0.35252   0.21442   -0.021591           
         H         H         0.30865   0.06340   0.28149   0.070885  
         H         H         0.73665   0.40278   0.29444   0.139226  
         F         F         0.77501   0.35337   0.28506   -0.153320           
         H         H         0.68056   0.38792   0.20520   0.117202  
         H         H         0.71441   0.33801   0.19223   0.116814  
         N         N         0.16573   0.05687   0.76551   -0.294779           
         C         C         0.18447   0.06911   0.74346   0.069408  
         C         C         0.14448   0.02866   0.75694   0.271661  
         B         B         0.26896   0.18154   0.77736   0.747827  
         O         O         0.69828   0.25804   0.79184   -0.574249           
         C         C         0.02284   0.78805   0.12353   -0.304664           
         H         H         0.01939   0.81071   0.13820   0.114433  
         H         H         0.04359   0.79254   0.10702   0.102874  
         H         H         0.97860   0.25550   0.43389   0.104658  
         C         C         0.79325   0.40002   0.74872   0.097496  
         C         C         0.75579   0.34237   0.76227   -0.363356           
         C         C         0.76998   0.38822   0.72567   -0.275082           
         C         C         0.75208   0.35981   0.73288   0.323359  
         C         C         0.79802   0.38277   0.77831   -0.144643           
         C         C         0.77960   0.35467   0.78477   -0.021442           
         H         H         0.18542   0.05983   0.71792   0.070901  
         H         H         0.76588   0.40072   0.70240   0.139671  
         F         F         0.73002   0.34851   0.70993   -0.152290           
         H         H         0.81620   0.39216   0.79574   0.117585  
         H         H         0.78298   0.34144   0.80774   0.115639  
         N         N         0.66527   0.56092   0.26519   -0.295124           
         C         C         0.69121   0.56776   0.24885   0.069424  
         C         C         0.64645   0.53076   0.25713   0.273815  
         B         B         0.77220   0.68510   0.27754   0.746346  
         O         O         0.19891   0.75496   0.29428   -0.569871           
         C         C         0.51772   0.28816   0.62757   -0.303171           
         H         H         0.51207   0.31030   0.64232   0.114526  
         H         H         0.53981   0.29369   0.61324   0.106651  
         H         H         0.47722   0.75441   0.93302   0.106476  
         C         C         0.29338   0.89819   0.25057   0.100237  
         C         C         0.25653   0.84020   0.26553   -0.362300           
         C         C         0.26804   0.88729   0.22938   -0.276817           
         C         C         0.25011   0.85919   0.23751   0.324225  
         C         C         0.30065   0.87968   0.27889   -0.146071           
         C         C         0.28268   0.85139   0.28594   -0.021748           
         H         H         0.70048   0.55195   0.22879   0.067369  
         H         H         0.26180   0.90037   0.20693   0.140244  
         F         F         0.22512   0.85009   0.21665   -0.152475           
         H         H         0.32068   0.88807   0.29472   0.119042  
         H         H         0.28859   0.83701   0.30771   0.117023  
         N         N         0.58375   0.51528   0.18927   -0.293394           
         C         C         0.56380   0.49411   0.17634   0.068175  
         C         C         0.60311   0.50661   0.21858   0.270145  
         B         B         0.48131   0.53053   0.06365   0.748679  
         O         O         0.05520   0.54319   0.99336   -0.572456           
         C         C         0.72718   0.87752   0.46285   -0.303556           
         H         H         0.73279   0.89383   0.44215   0.113579  
         H         H         0.70450   0.86407   0.45656   0.103671  
         H         H         0.77023   0.18666   0.99346   0.103130  
         C         C         0.96152   0.49939   0.84980   0.097889  
         C         C         0.00212   0.51524   0.90495   -0.362421           
         C         C         0.98576   0.47702   0.86041   -0.276922           
         C         C         0.00573   0.48558   0.88720   0.324305  
         C         C         0.95795   0.52978   0.86654   -0.142130           
         C         C         0.97751   0.53710   0.89366   -0.022641           
         H         H         0.56028   0.46895   0.18584   0.070747  
         H         H         0.98936   0.45332   0.84807   0.140071  
         F         F         0.02947   0.46349   0.89651   -0.154893           
         H         H         0.93948   0.54693   0.85763   0.116648  
         H         H         0.97421   0.56027   0.90703   0.115847  
         N         N         0.08339   0.01211   0.68804   -0.292136           
         C         C         0.05836   0.99466   0.67962   0.066602  
         C         C         0.10065   0.00496   0.71894   0.271745  
         B         B         0.98310   0.02384   0.56024   0.749253  
         O         O         0.55458   0.04497   0.49335   -0.569586           
         C         C         0.22810   0.37261   0.96405   -0.297813           
         H         H         0.23137   0.38665   0.94131   0.115244  
         H         H         0.20600   0.35725   0.96079   0.108591  
         H         H         0.27397   0.68181   0.49544   0.105830  
         C         C         0.46054   0.00531   0.34853   0.101185  
         C         C         0.49687   0.01449   0.40826   -0.363682           
         C         C         0.48763   0.98509   0.35579   -0.277984           
         C         C         0.50457   0.98956   0.38537   0.324331  
         C         C         0.45135   0.02997   0.37134   -0.145197           
         C         C         0.46937   0.03444   0.40019   -0.019931           
         H         H         0.04818   0.97487   0.69498   0.068861  
         H         H         0.49543   0.96581   0.33875   0.138853  
         F         F         0.52998   0.96842   0.39161   -0.152343           
         H         H         0.43029   0.04545   0.36558   0.118206  
         H         H         0.46265   0.05395   0.41750   0.116044  
         N         N         0.91725   0.49040   0.69013   -0.288966           
         C         C         0.94037   0.51011   0.68161   0.066890  
         C         C         0.89819   0.49659   0.72003   0.269858  
         B         B         0.01552   0.47777   0.56320   0.747868  
         O         O         0.44648   0.45167   0.48923   -0.573670           
         C         C         0.77584   0.12552   0.96127   -0.305899           
         H         H         0.77286   0.11007   0.93908   0.115559  
         H         H         0.79743   0.14139   0.95749   0.104601  
         H         H         0.72417   0.81644   0.49129   0.106791  
         C         C         0.54008   0.49732   0.34791   0.100703  
         C         C         0.50247   0.48256   0.40479   -0.366461           
         C         C         0.51685   0.52004   0.35971   -0.276821           
         C         C         0.49881   0.51228   0.38755   0.329710  
         C         C         0.54447   0.46714   0.36444   -0.145025           
         C         C         0.52614   0.46022   0.39217   -0.020784           
         H         H         0.94750   0.53249   0.69562   0.071890  
         H         H         0.51290   0.54348   0.34730   0.138461  
         F         F         0.47669   0.53518   0.39828   -0.153343           
         H         H         0.56235   0.44967   0.35480   0.117764  
         H         H         0.52952   0.43693   0.40499   0.115808  
         N         N         0.41443   0.98593   0.19022   -0.295061           
         C         C         0.43688   0.00591   0.18064   0.068423  
         C         C         0.39538   0.99446   0.21980   0.272119  
         B         B         0.51585   0.97989   0.06254   0.746821  
         O         O         0.94856   0.95492   0.99350   -0.572078           
         C         C         0.27377   0.62070   0.46391   -0.301619           
         H         H         0.26880   0.60468   0.44246   0.113305  
         H         H         0.29609   0.63496   0.45861   0.108175  
         H         H         0.23037   0.31472   -0.00058  0.102820  
         C         C         0.03833   0.99580   0.84821   0.098717  
         C         C         0.00135   0.97988   0.90500   -0.364720           
         C         C         0.01710   0.01923   0.86216   -0.276582           
         C         C         -0.00061  0.01093   0.89000   0.326147  
         C         C         0.04116   0.96434   0.86258   -0.142755           
         C         C         0.02315   0.95677   0.89038   -0.020058           
         H         H         0.44271   0.02931   0.19353   0.068623  
         H         H         0.01461   0.04390   0.85200   0.138634  
         F         F         0.98003   0.03509   0.90330   -0.153806           
         H         H         0.05792   0.94670   0.85134   0.116776  
         H         H         0.02568   0.93247   0.90149   0.115063  
         N         N         0.07935   0.98413   0.80826   -0.293616           
         C         C         0.05787   0.00446   0.81922   0.071965  
         C         C         0.09942   0.99232   0.77966   0.271881  
         B         B         0.98175   0.97067   0.93625   0.748795  
         O         O         0.55167   0.96028   0.00795   -0.572214           
         C         C         0.22684   0.62420   0.53665   -0.312814           
         H         H         0.23034   0.60945   0.55895   0.114313  
         H         H         0.20521   0.63988   0.54063   0.102213  
         H         H         0.27341   0.31389   0.00619   0.103658  
         C         C         0.45674   0.99907   0.15127   0.098669  
         C         C         0.49562   0.98812   0.09400   -0.360329           
         C         C         0.48000   0.02262   0.14147   -0.276949           
         C         C         0.49848   0.01699   0.11333   0.325336  
         C         C         0.45297   0.96983   0.13253   -0.141462           
         C         C         0.47206   0.96473   0.10480   -0.023403           
         H         H         0.05292   0.02885   0.80834   0.068365  
         H         H         0.48366   0.04549   0.15533   0.138361  
         F         F         0.52001   0.04146   0.10495   -0.154352           
         H         H         0.43485   0.95178   0.14033   0.118986  
         H         H         0.46911   0.94200   0.09047   0.116488  
         N         N         0.58158   0.48536   0.30814   -0.291647           
         C         C         0.55956   0.50538   0.31865   0.067666  
         C         C         0.60143   0.49369   0.27932   0.269547  
         B         B         0.48236   0.47249   0.43553   0.747818  
         O         O         0.05013   0.45522   0.50905   -0.572588           
         C         C         0.72710   0.12479   0.03289   -0.301602           
         H         H         0.73112   0.10941   0.05467   0.117047  
         H         H         0.70501   0.13966   0.03747   0.108612  
         H         H         0.76645   0.81228   0.50121   0.112947  
         C         C         0.95924   0.50327   0.65152   0.099389  
         C         C         0.99591   0.48890   0.59391   -0.363061           
         C         C         0.98388   0.52517   0.64117   -0.276988           
         C         C         0.00149   0.51763   0.61281   0.325523  
         C         C         0.95270   0.47442   0.63294   -0.142306           
         C         C         0.97063   0.46769   0.60487   -0.024370           
         H         H         0.55403   0.52926   0.30697   0.071664  
         H         H         0.98949   0.54775   0.65491   0.140047  
         F         F         0.02492   0.53987   0.60337   -0.153770           
         H         H         0.93353   0.45789   0.64144   0.116587  
         H         H         0.96569   0.44542   0.59043   0.116693  
         N         N         0.41481   0.01404   0.31167   -0.294110           
         C         C         0.44250   0.00003   0.31730   0.065383  
         C         C         0.39659   0.00748   0.28093   0.272015  
         B         B         0.51704   0.02282   0.43998   0.745345  
         O         O         0.94795   0.04340   0.50489   -0.570745           
         C         C         0.27847   0.37600   0.03507   -0.309814           
         H         H         0.27583   0.39269   0.05633   0.114284  
         H         H         0.30038   0.36081   0.03949   0.104836  
         H         H         0.23129   0.68370   0.50360   0.107771  
         C         C         0.04092   0.00036   0.64848   0.100328  
         C         C         0.00350   0.01314   0.59070   -0.363680           
         C         C         0.01223   0.98218   0.64169   -0.277944           
         C         C         0.99438   0.98871   0.61324   0.326490  
         C         C         0.05174   0.02404   0.62580   -0.140503           
         C         C         0.03325   0.03016   0.59773   -0.024193           
         H         H         0.45434   0.98308   0.29969   0.069259  
         H         H         0.00359   0.96333   0.65849   0.139147  
         F         F         0.96667   0.97011   0.60827   -0.153136           
         H         H         0.07435   0.03749   0.63110   0.118034  
         H         H         0.04115   0.04887   0.58039   0.116691  
         N         N         0.91962   0.51325   0.81062   -0.295943           
         C         C         0.94002   0.49160   0.82132   0.070565  
         C         C         0.89878   0.50625   0.78165   0.273154  
         B         B         0.02230   0.52538   0.93588   0.750866  
         O         O         0.44492   0.54997   0.00923   -0.572349           
         C         C         0.77262   0.87084   0.53694   -0.318682           
         H         H         0.76939   0.88504   0.55985   0.114696  
         H         H         0.79384   0.85447   0.54044   0.104895  
         H         H         0.72734   0.18397   0.00051   0.105198  
         C         C         0.54353   0.50284   0.14757   0.099378  
         C         C         0.50330   0.51992   0.09302   -0.364290           
         C         C         0.52004   0.48029   0.13541   -0.277006           
         C         C         0.50058   0.48927   0.10864   0.324942  
         C         C         0.54732   0.53369   0.13222   -0.143235           
         C         C         0.52770   0.54175   0.10543   -0.025775           
         H         H         0.94284   0.46675   0.81030   0.071041  
         H         H         0.51687   0.45621   0.14671   0.139614  
         F         F         0.47843   0.46661   0.09683   -0.152114           
         H         H         0.56580   0.55068   0.14187   0.118417  
         H         H         0.53077   0.56544   0.09326   0.120919  
         N         N         0.51325   0.19005   0.58679   -0.294496           
         C         C         0.49411   0.17934   0.56385   0.070369  
         C         C         0.50367   0.21962   0.60587   0.272270  
         B         B         0.52591   0.06160   0.48485   0.744557  
         O         O         0.54150   -0.00036  0.05158   -0.568455           
         C         C         0.87581   0.46611   0.72463   -0.308444           
         H         H         0.89088   0.44371   0.72653   0.116417  
         H         H         0.86030   0.46323   0.70257   0.105964  
         H         H         0.18174   0.99350   0.77219   0.106498  
         C         C         0.50520   0.84956   0.96172   0.101072  
         C         C         0.51773   0.90901   0.99771   -0.365317           
         C         C         0.48281   0.86058   0.98553   -0.277821           
         C         C         0.48931   0.89011   0.00214   0.323343  
         C         C         0.53363   0.86837   0.95563   -0.148114           
         C         C         0.53977   0.89723   0.97352   -0.017891           
         H         H         0.47049   0.19114   0.55774   0.067821  
         H         H         0.46030   0.84702   0.99055   0.140464  
         F         F         0.46633   0.90152   0.02356   -0.151426           
         H         H         0.55042   0.85954   0.93683   0.118814  
         H         H         0.56211   0.91131   0.96920   0.115595  
         N         N         0.01336   0.68869   0.08619   -0.291897           
         C         C         0.99713   0.68084   0.06009   0.064525  
         C         C         0.00599   0.71955   0.10405   0.271320  
         B         B         0.02752   0.56090   0.98368   0.750946  
         O         O         0.04422   0.49340   0.55389   -0.571743           
         C         C         0.37211   0.96512   0.22608   -0.307645           
         H         H         0.38645   0.94235   0.22907   0.113483  
         H         H         0.35638   0.96170   0.20424   0.102827  
         H         H         0.68333   0.49571   0.27327   0.106287  
         C         C         0.99878   0.35211   0.45619   0.101614  
         C         C         0.01120   0.40860   0.49676   -0.363890           
         C         C         0.97622   0.36156   0.48043   -0.277871           
         C         C         0.98289   0.38914   0.50009   0.326697  
         C         C         0.02725   0.37128   0.45162   -0.142024           
         C         C         0.03298   0.39883   0.47138   -0.021496           
         H         H         0.97719   0.69608   0.04997   0.070149  
         H         H         0.95362   0.34779   0.48432   0.138070  
         F         F         0.96007   0.39675   0.52341   -0.154823           
         H         H         0.04433   0.36383   0.43252   0.118082  
         H         H         0.05482   0.41388   0.46761   0.116181  
         N         N         0.48563   0.69233   0.91539   -0.297340           
         C         C         0.50796   0.67742   0.93195   0.069510  
         C         C         0.49429   0.72094   0.89515   0.274495  
         B         B         0.47265   0.56794   0.01850   0.748986  
         O         O         0.45536   0.49050   0.44609   -0.571708           
         C         C         0.12132   0.96193   0.77354   -0.306679           
         H         H         0.10591   0.93992   0.76947   0.114817  
         H         H         0.13604   0.95757   0.79583   0.104539  
         H         H         0.81636   0.49805   0.72951   0.106131  
         C         C         0.49312   0.34621   0.54037   0.099734  
         C         C         0.48208   0.40246   0.50013   -0.362017           
         C         C         0.51643   0.35558   0.51699   -0.275873           
         C         C         0.51068   0.38335   0.49792   0.324924  
         C         C         0.46413   0.36479   0.54370   -0.144768           
         C         C         0.45891   0.39209   0.52391   -0.020641           
         H         H         0.53408   0.68455   0.93171   0.072717  
         H         H         0.53912   0.34181   0.51381   0.139137  
         F         F         0.53494   0.39176   0.47654   -0.154176           
         H         H         0.44644   0.35721   0.56209   0.118718  
         H         H         0.43641   0.40633   0.52652   0.115461  
         N         N         0.98709   0.18992   0.41556   -0.291388           
         C         C         0.00471   0.18200   0.44055   0.067223  
         C         C         0.99411   0.22002   0.39681   0.269931  
         B         B         0.97647   0.06045   0.51404   0.750270  
         O         O         0.95452   0.98871   0.94600   -0.574590           
         C         C         0.62349   0.46341   0.27307   -0.307846           
         H         H         0.60802   0.44154   0.26837   0.115213  
         H         H         0.63777   0.45858   0.29555   0.104494  
         H         H         0.31368   0.99897   0.22951   0.106971  
         C         C         0.99546   0.84869   0.04266   0.099325  
         C         C         0.98436   0.90552   0.00426   -0.366482           
         C         C         0.01796   0.85744   0.01826   -0.276809           
         C         C         0.01210   0.88556   -0.00024  0.328470  
         C         C         0.96758   0.86835   0.04837   -0.140900           
         C         C         0.96241   0.89618   0.02940   -0.021878           
         H         H         0.02548   0.19700   0.44985   0.070971  
         H         H         0.03978   0.84263   0.01374   0.139064  
         F         F         0.03490   0.89335   0.97661   -0.152207           
         H         H         0.95075   0.86117   0.06770   0.118924  
         H         H         0.94096   0.91168   0.03341   0.115865  
         N         N         0.98192   0.80906   0.08389   -0.295571           
         C         C         0.00215   0.81922   0.06219   0.068109  
         C         C         0.99144   0.78033   0.10360   0.271790  
         B         B         0.97517   0.93587   0.98332   0.748326  
         O         O         0.95297   0.00972   0.55297   -0.573317           
         C         C         0.62534   0.53669   0.22615   -0.303852           
         H         H         0.61022   0.55895   0.22926   0.116886  
         H         H         0.64127   0.54091   0.20488   0.107103  
         H         H         0.31469   0.00775   0.27237   0.105226  
         C         C         0.99814   0.15125   0.45870   0.101245  
         C         C         0.98555   0.09217   0.49459   -0.365707           
         C         C         0.01804   0.14275   0.48566   -0.279589           
         C         C         0.01149   0.11372   0.50261   0.328545  
         C         C         0.97201   0.13012   0.44960   -0.144287           
         C         C         0.96595   0.10154   0.46727   -0.021485           
         H         H         0.02572   0.80695   0.05705   0.069318  
         H         H         0.03840   0.15837   0.49374   0.139608  
         F         F         0.03173   0.10665   0.52843   -0.153439           
         H         H         0.95690   0.13699   0.42861   0.116819  
         H         H         0.94546   0.08556   0.46035   0.116186  
         N         N         0.48041   0.30909   0.58420   -0.293499           
         C         C         0.49987   0.31740   0.56102   0.067749  
         C         C         0.48861   0.28024   0.60435   0.271900  
         B         B         0.47384   0.43364   0.47947   0.748206  
         O         O         0.45308   0.51335   0.05481   -0.569850           
         C         C         0.12290   0.03499   0.72644   -0.310822           
         H         H         0.10785   0.05716   0.73059   0.114887  
         H         H         0.13799   0.03955   0.70467   0.103489  
         H         H         0.81695   0.50408   0.77281   0.104945  
         C         C         0.49929   0.64975   0.95352   0.100192  
         C         C         0.48251   0.59769   0.99687   -0.365600           
         C         C         0.52118   0.64029   0.97852   -0.278835           
         C         C         0.51202   0.61536   -0.00005  0.326011  
         C         C         0.46897   0.63323   0.95011   -0.145089           
         C         C         0.46120   0.60750   0.97105   -0.023742           
         H         H         0.52265   0.30393   0.55530   0.069523  
         H         H         0.54486   0.65241   0.98183   0.140269  
         F         F         0.53334   0.60830   0.02497   -0.152608           
         H         H         0.45230   0.64096   0.93066   0.117577  
         H         H         0.43808   0.59424   0.96799   0.119191  
         N         N         0.01359   0.31148   0.41561   -0.293183           
         C         C         0.99231   0.32234   0.43612   0.068793  
         C         C         0.00618   0.28154   0.39608   0.274139  
         B         B         0.02133   0.43907   0.51810   0.746921  
         O         O         0.05078   0.50916   0.94485   -0.571071           
         C         C         0.37525   0.03838   0.27458   -0.304578           
         H         H         0.39098   0.06012   0.27077   0.113728  
         H         H         0.36060   0.04329   0.29668   0.105931  
         H         H         0.68462   0.50365   0.23049   0.105190  
         C         C         0.00419   0.65015   0.04164   0.102265  
         C         C         0.01723   0.59132   0.00490   -0.364164           
         C         C         0.98106   0.63798   0.01873   -0.277584           
         C         C         0.98763   0.60871   0.00177   0.327262  
         C         C         0.03371   0.63274   0.04643   -0.145865           
         C         C         0.03998   0.60424   0.02822   -0.024128           
         H         H         0.96837   0.31034   0.44024   0.068136  
         H         H         0.95794   0.65069   0.01429   0.139235  
         F         F         0.96340   0.59669   0.98156   -0.154114           
         H         H         0.05141   0.64237   0.06424   0.118519  
         H         H         0.06309   0.59115   0.03147   0.116527  
         N         N         0.51156   0.81333   0.91525   -0.290024           
         C         C         0.49872   0.81848   0.94348   0.063959  
         C         C         0.50533   0.78260   0.89680   0.269633  
         B         B         0.52540   0.94105   0.01782   0.750882  
         O         O         0.54467   0.00530   0.44986   -0.570500           
         C         C         0.87640   0.53676   0.77692   -0.302200           
         H         H         0.89162   0.55905   0.77437   0.115139  
         H         H         0.86139   0.54018   0.79907   0.105665  
         H         H         0.18178   0.00189   0.72946   0.107979  
         C         C         0.50240   0.15004   0.54380   0.098455  
         C         C         0.51682   0.09292   0.50522   -0.360705           
         C         C         0.48001   0.13879   0.51969   -0.275547           
         C         C         0.48761   0.11072   0.50119   0.324184  
         C         C         0.53212   0.13291   0.54851   -0.140621           
         C         C         0.53890   0.10498   0.52964   -0.022832           
         H         H         0.48247   0.80072   0.95582   0.071539  
         H         H         0.45688   0.15153   0.51544   0.138214  
         F         F         0.46500   0.10006   0.47843   -0.151621           
         H         H         0.54903   0.14205   0.56734   0.118174  
         H         H         0.56172   0.09154   0.53351   0.116203  
         N         N         0.18988   0.58214   0.51539   -0.295142           
         C         C         0.17795   0.56127   0.49454   0.068950  
         C         C         0.21948   0.60120   0.50711   0.272967  
         B         B         0.06143   0.48259   0.52638   0.749252  
         O         O         0.99509   0.04891   0.54024   -0.573738           
         C         C         0.46477   0.72683   0.87212   -0.318911           
         H         H         0.44239   0.72952   0.88684   0.111406  
         H         H         0.46166   0.70464   0.85659   0.103970  
         H         H         -0.00072  0.77465   0.18523   0.104971  
         C         C         0.85047   0.95486   0.50430   0.100816  
         C         C         0.90523   0.99706   0.51583   -0.363917           
         C         C         0.85963   0.97820   0.48072   -0.277836           
         C         C         0.88623   0.99893   0.48703   0.326939  
         C         C         0.86848   0.95254   0.53383   -0.142093           
         C         C         0.89537   0.97304   0.53905   -0.022719           
         H         H         0.18878   0.55651   0.47019   0.070384  
         H         H         0.84612   0.98042   0.45768   0.138639  
         F         F         0.89336   0.02165   0.46341   -0.154332           
         H         H         0.86093   0.93451   0.55199   0.120404  
         H         H         0.90985   0.97105   0.56154   0.117380  
         N         N         0.69216   0.08203   0.01056   -0.294063           
         C         C         0.67781   0.06394   0.98875   0.069605  
         C         C         0.72108   0.10222   0.00261   0.270556  
         B         B         0.56004   0.98909   0.02472   0.746915  
         O         O         0.49048   0.55833   0.04592   -0.572936           
         C         C         0.96392   0.22600   0.37450   -0.307649           
         H         H         0.94213   0.23038   0.38973   0.112332  
         H         H         0.95926   0.20339   0.36001   0.103999  
         H         H         0.48884   0.27307   0.68672   0.102908  
         C         C         0.35123   0.46028   -0.00066  0.099372  
         C         C         0.40512   0.50155   0.01675   -0.365102           
         C         C         0.36206   0.48461   0.97748   -0.277018           
         C         C         0.38843   0.50463   0.98669   0.326211  
         C         C         0.36731   0.45654   0.02985   -0.143955           
         C         C         0.39368   0.47671   0.03815   -0.020336           
         H         H         0.68627   0.06113   0.96316   0.072215  
         H         H         0.35048   0.48801   0.95357   0.139909  
         F         F         0.39805   0.52829   0.96495   -0.152532           
         H         H         0.35840   0.43753   0.04629   0.116816  
         H         H         0.40624   0.47390   0.06168   0.115896  
         N         N         0.69161   0.91818   0.48686   -0.289327           
         C         C         0.68555   0.94487   0.50293   0.063870  
         C         C         0.72075   0.89845   0.49402   0.269737  
         B         B         0.56367   0.01662   0.47635   0.748440  
         O         O         0.49158   0.44390   0.45231   -0.569328           
         C         C         0.96318   0.77370   0.12751   -0.304195           
         H         H         0.94055   0.76852   0.11353   0.114702  
         H         H         0.95887   0.79617   0.14225   0.103371  
         H         H         0.49745   0.73121   0.81352   0.110070  
         C         C         0.34811   0.53619   0.49729   0.098548  
         C         C         0.40605   0.49987   0.48278   -0.361910           
         C         C         0.35757   0.50956   0.51723   -0.276964           
         C         C         0.38616   0.49229   0.50974   0.324025  
         C         C         0.36779   0.54491   0.47037   -0.143259           
         C         C         0.39596   0.52702   0.46341   -0.021991           
         H         H         0.70152   0.95511   0.52249   0.071488  
         H         H         0.34304   0.50233   0.53835   0.139592  
         F         F         0.39486   0.46680   0.52993   -0.152432           
         H         H         0.36010   0.56574   0.45544   0.117641  
         H         H         0.41105   0.53355   0.44243   0.116052  
         N         N         0.19398   0.41658   0.98463   -0.293419           
         C         C         0.18255   0.43733   0.00565   0.071579  
         C         C         0.22290   0.39667   0.99310   0.268580  
         B         B         0.06696   0.51740   0.97402   0.746896  
         O         O         0.99176   0.94368   0.95478   -0.568214           
         C         C         0.45830   0.27311   0.62554   -0.307231           
         H         H         0.43681   0.26807   0.60978   0.116022  
         H         H         0.45276   0.29542   0.64010   0.105591  
         H         H         0.99606   0.22749   0.31474   0.106753  
         C         C         0.85255   0.04348   0.99844   0.098016  
         C         C         0.90856   0.00344   0.98526   -0.362792           
         C         C         0.86335   0.02012   0.02150   -0.274492           
         C         C         0.89080   0.00082   0.01463   0.324370  
         C         C         0.87006   0.04721   0.96896   -0.144861           
         C         C         0.89727   0.02758   0.96278   -0.023089           
         H         H         0.19341   0.44153   0.03023   0.067690  
         H         H         0.85043   0.01665   0.04456   0.139244  
         F         F         0.90001   0.97848   0.03809   -0.154096           
         H         H         0.86145   0.06541   0.95138   0.119557  
         H         H         0.91063   0.03021   0.93985   0.118019  
         N         N         0.81194   0.08405   0.98418   -0.295036           
         C         C         0.82293   0.06327   0.00522   0.070948  
         C         C         0.78224   0.10344   0.99136   0.270447  
         B         B         0.93819   0.98156   0.97506   0.749708  
         O         O         0.01106   0.55171   0.95505   -0.573278           
         C         C         0.53260   0.22795   0.62917   -0.303097           
         H         H         0.55495   0.23210   0.61482   0.114602  
         H         H         0.53719   0.20655   0.64503   0.105365  
         H         H         0.00349   0.27073   0.31420   0.105503  
         C         C         0.15346   0.45733   0.99780   0.100281  
         C         C         0.09759   0.49656   0.98309   -0.364619           
         C         C         0.14324   0.48198   0.02000   -0.276014           
         C         C         0.11593   0.50096   0.01199   0.323159  
         C         C         0.13566   0.45205   0.96840   -0.145690           
         C         C         0.10825   0.47116   0.96146   -0.019692           
         H         H         0.81120   0.05866   0.02911   0.070350  
         H         H         0.15621   0.48648   0.04308   0.139609  
         F         F         0.10677   0.52509   0.03360   -0.149997           
         H         H         0.14398   0.43278   0.95162   0.118927  
         H         H         0.09416   0.46680   0.93899   0.116884  
         N         N         0.30991   0.58001   0.48742   -0.290679           
         C         C         0.31774   0.55463   0.50449   0.066906  
         C         C         0.28021   0.59923   0.49450   0.272713  
         B         B         0.43700   0.47995   0.47278   0.747860  
         O         O         0.50708   0.05014   0.45852   -0.570773           
         C         C         0.03720   0.72828   0.12400   -0.304642           
         H         H         0.05773   0.73301   0.10726   0.115402  
         H         H         0.04398   0.70687   0.13901   0.106912  
         H         H         0.50465   0.77449   0.81457   0.106263  
         C         C         0.65517   0.96325   0.49625   0.102494  
         C         C         0.59553   0.99765   0.48505   -0.367428           
         C         C         0.64478   0.98755   0.51869   -0.278831           
         C         C         0.61509   0.00347   0.51301   0.329498  
         C         C         0.63587   0.95605   0.46823   -0.149087           
         C         C         0.60696   0.97324   0.46277   -0.022255           
         H         H         0.30295   0.54514   0.52496   0.070789  
         H         H         0.65900   0.99362   0.54070   0.139281  
         F         F         0.60497   0.02519   0.53667   -0.153443           
         H         H         0.64423   0.93685   0.45138   0.120237  
         H         H         0.59213   0.96832   0.44089   0.116505  
         N         N         0.31392   0.41616   0.01024   -0.292182           
         C         C         0.32253   0.43955   0.99101   0.067932  
         C         C         0.28420   0.39654   0.00380   0.272227  
         B         B         0.43522   0.52268   0.02708   0.746366  
         O         O         0.50793   0.95083   0.04543   -0.575269           
         C         C         0.03637   0.27469   0.37438   -0.304363           
         H         H         0.05804   0.27092   0.39012   0.115992  
         H         H         0.04128   0.29653   0.35927   0.107776  
         H         H         0.49858   0.23029   0.68731   0.105101  
         C         C         0.64781   0.04536   0.99718   0.101518  
         C         C         0.59069   0.00901   0.01428   -0.366702           
         C         C         0.63700   0.01895   0.97716   -0.277816           
         C         C         0.60929   0.00118   0.98635   0.325474  
         C         C         0.62971   0.05399   0.02538   -0.144461           
         C         C         0.60173   0.03625   0.03344   -0.021067           
         H         H         0.30923   0.44604   0.96829   0.072686  
         H         H         0.65005   0.01173   0.95498   0.140185  
         F         F         0.60011   0.97515   0.96663   -0.150393           
         H         H         0.63819   0.07485   0.04022   0.117034  
         H         H         0.58755   0.04307   0.05508   0.116191  
         N         N         0.81054   0.91331   0.51830   -0.297791           
         C         C         0.82191   0.93380   0.49730   0.069105  
         C         C         0.78096   0.89442   0.50868   0.275497  
         B         B         0.93627   0.01789   0.52416   0.748414  
         O         O         0.00393   0.45053   0.54508   -0.569650           
         C         C         0.53592   0.77702   0.87523   -0.297366           
         H         H         0.55771   0.77364   0.89089   0.114841  
         H         H         0.54005   0.79929   0.86054   0.109288  
         H         H         0.00848   0.73182   0.18603   0.104169  
         C         C         0.14852   0.54163   0.50218   0.099573  
         C         C         0.09253   0.50231   0.51655   -0.362699           
         C         C         0.13841   0.51636   0.48038   -0.275210           
         C         C         0.11129   0.49701   0.48819   0.324320  
         C         C         0.13065   0.54735   0.53119   -0.140879           
         C         C         0.10315   0.52828   0.53776   -0.025576           
         H         H         0.81079   0.93728   0.47281   0.066966  
         H         H         0.15168   0.51149   0.45772   0.139190  
         F         F         0.10330   0.47187   0.46678   -0.153002           
         H         H         0.13895   0.56680   0.54795   0.117871  
         H         H         0.08901   0.53289   0.55993   0.117625  
         C         C         0.25194   0.66671   0.49952   -0.306391           
         C         C         0.25239   0.33033   0.00178   -0.308401           
         C         C         0.74979   0.16931   0.99713   -0.314015           
         C         C         0.74668   0.83031   0.49734   -0.299858           
         C         C         0.49430   0.25149   0.67110   -0.308115           
         C         C         0.00007   0.24944   0.33043   -0.306623           
         C         C         0.00292   0.75258   0.16969   -0.305954           
         C         C         0.50119   0.75261   0.83001   -0.303134           
         C         C         0.66806   0.49992   0.25133   -0.314055           
         C         C         0.33008   0.00279   0.25079   -0.298931           
         C         C         0.16581   0.99772   0.75072   -0.302157           
         C         C         0.83255   0.50112   0.75106   -0.312034           
         C         C         0.92017   0.50129   0.75077   -0.304326           
         C         C         0.58045   0.50012   0.24824   -0.303285           
         C         C         0.41766   -0.00007  0.25035   -0.317009           
         C         C         0.07818   0.99869   0.74871   -0.310068           
         C         C         0.49918   0.75160   0.91771   -0.309320           
         C         C         0.49703   0.24943   0.58344   -0.311532           
         C         C         0.00011   0.25123   0.41824   -0.310376           
         C         C         0.99674   0.74910   0.08212   -0.314494           
         C         C         0.75186   0.91821   0.50311   -0.314606           
         C         C         0.24933   0.57829   0.50149   -0.311170           
         C         C         0.25385   0.41846   0.99739   -0.305784           
         C         C         0.75201   0.08088   0.99689   -0.300116 

