
##########################################################################
#               Crystallographic Information Format file
#               Produced by PyCifRW module
#
#  This is a CIF file.  CIF has been adopted by the International
#  Union of Crystallography as the standard for data archiving and
#  transmission.
#
#  For information on this file format, follow the CIF links at
#  http://www.iucr.org
##########################################################################

data_image0

_cell_length_a                          40.8487
_cell_length_b                          40.5784
_cell_length_c                          40.5707
_cell_angle_alpha                       90.247
_cell_angle_beta                        90.2094
_cell_angle_gamma                       90.1439
_symmetry_space_group_name_H-M          'P 1'
_space_group_name_Hall                  'P 1'
loop_
  _atom_site_type_symbol
  _atom_site_label
  _atom_site_fract_x
  _atom_site_fract_y
  _atom_site_fract_z
  _atom_site_charge
         N         N         0.26724   0.33270   0.94162   -0.298357           
         C         C         0.25200   0.30574   0.93518   0.063425  
         C         C         0.25917   0.35202   0.97115   0.271696  
         B         B         0.27839   0.22874   0.81601   0.718108  
         O         O         0.29409   0.80641   0.74170   -0.567676           
         C         C         0.62448   0.47776   0.21233   -0.308076           
         H         H         0.63984   0.48239   0.19066   0.112665  
         H         H         0.60909   0.45622   0.20665   0.102540  
         H         H         0.93484   0.52338   0.74575   0.104463  
         C         C         0.25602   0.70777   0.59956   0.070552  
         C         C         0.26929   0.74498   0.65736   -0.251166           
         C         C         0.23448   0.73272   0.60987   -0.149378           
         C         C         0.24108   0.75110   0.63827   -0.050087           
         C         C         0.28420   0.70132   0.61855   -0.124518           
         C         C         0.29056   0.71960   0.64693   -0.051689           
         H         H         0.23275   0.29545   0.95110   0.066348  
         H         H         0.21251   0.73751   0.59536   0.104892  
         H         H         0.22432   0.77047   0.64590   0.107774  
         H         H         0.30057   0.68185   0.61033   0.114835  
         H         H         0.31243   0.71455   0.66145   0.108333  
         N         N         0.76607   0.83461   0.44036   -0.300441           
         C         C         0.74637   0.81272   0.42881   0.067313  
         C         C         0.75690   0.85337   0.47001   0.273466  
         B         B         0.77899   0.73316   0.31316   0.719354  
         O         O         0.79175   0.30344   0.24324   -0.567514           
         C         C         0.12345   0.97516   0.71214   -0.298436           
         H         H         0.13925   0.98028   0.69091   0.114366  
         H         H         0.10845   0.95354   0.70573   0.108037  
         H         H         0.43500   0.02284   0.24486   0.103022  
         C         C         0.75818   0.21105   0.09623   0.068332  
         C         C         0.76924   0.24596   0.15578   -0.250220           
         C         C         0.73994   0.23946   0.10371   -0.145198           
         C         C         0.74531   0.25654   0.13315   -0.053073           
         C         C         0.78208   0.20020   0.11876   -0.123024           
         C         C         0.78752   0.21749   0.14792   -0.054198           
         H         H         0.72266   0.80679   0.44025   0.066973  
         H         H         0.72150   0.24795   0.08627   0.103854  
         H         H         0.73105   0.27847   0.13878   0.108675  
         H         H         0.79598   0.17819   0.11259   0.114616  
         H         H         0.80619   0.20916   0.16517   0.108276  
         N         N         0.23449   0.66351   0.43907   -0.300139           
         C         C         0.25188   0.68845   0.43060   0.066202  
         C         C         0.24278   0.64539   0.46929   0.271621  
         B         B         0.22530   0.76490   0.31146   0.716141  
         O         O         0.20471   0.19492   0.24029   -0.568295           
         C         C         0.87474   0.52375   0.71361   -0.301040           
         H         H         0.85903   0.51850   0.69217   0.113673  
         H         H         0.88954   0.54553   0.70755   0.103603  
         H         H         0.56487   0.48042   0.24445   0.105472  
         C         C         0.24672   0.29549   0.10238   0.070169  
         C         C         0.23188   0.25719   0.15844   -0.251828           
         C         C         0.26755   0.26975   0.11213   -0.148269           
         C         C         0.26011   0.25077   0.13968   -0.050996           
         C         C         0.21859   0.30230   0.12113   -0.123335           
         C         C         0.21143   0.28347   0.14870   -0.053032           
         H         H         0.27287   0.69747   0.44520   0.066021  
         H         H         0.28951   0.26479   0.09781   0.105093  
         H         H         0.27618   0.23066   0.14688   0.108294  
         H         H         0.20298   0.32255   0.11337   0.115312  
         H         H         0.18964   0.28877   0.16312   0.108215  
         N         N         0.73543   0.16591   0.93666   -0.298882           
         C         C         0.75242   0.19113   0.92829   0.065478  
         C         C         0.74344   0.14789   0.96695   0.270249  
         B         B         0.72335   0.26690   0.80956   0.716170  
         O         O         0.70877   0.69849   0.74501   -0.567828           
         C         C         0.37491   0.02368   0.21250   -0.306198           
         H         H         0.35955   0.01849   0.19079   0.114385  
         H         H         0.38954   0.04567   0.20685   0.102190  
         H         H         0.06323   0.97576   0.74362   0.103839  
         C         C         0.74413   0.79130   0.59952   0.067362  
         C         C         0.73094   0.75446   0.65705   -0.247809           
         C         C         0.76700   0.76833   0.61138   -0.146763           
         C         C         0.76040   0.75005   0.63964   -0.053177           
         C         C         0.71453   0.79574   0.61665   -0.119209           
         C         C         0.70828   0.77777   0.64500   -0.055298           
         H         H         0.77300   0.20084   0.94307   0.065229  
         H         H         0.79001   0.76502   0.59827   0.105219  
         H         H         0.77818   0.73224   0.64860   0.108591  
         H         H         0.69712   0.81357   0.60704   0.112381  
         H         H         0.68544   0.78140   0.65826   0.108539  
         N         N         0.73193   0.83268   0.55912   -0.299597           
         C         C         0.75167   0.81064   0.56993   0.066923  
         C         C         0.74115   0.85239   0.53027   0.273200  
         B         B         0.72306   0.73424   0.68839   0.718022  
         O         O         0.70762   0.30503   0.75492   -0.566601           
         C         C         0.37557   0.97921   0.28724   -0.300169           
         H         H         0.36035   0.98414   0.30897   0.114727  
         H         H         0.39083   0.95773   0.29302   0.108196  
         H         H         0.06285   0.01849   0.75318   0.102017  
         C         C         0.74543   0.20931   0.89779   0.069604  
         C         C         0.73183   0.24604   0.84029   -0.249340           
         C         C         0.76473   0.23681   0.88962   -0.145320           
         C         C         0.75801   0.25488   0.86123   -0.053571           
         C         C         0.71953   0.19993   0.87671   -0.123671           
         C         C         0.71292   0.21808   0.84852   -0.053733           
         H         H         0.77537   0.80510   0.55826   0.066005  
         H         H         0.78492   0.24391   0.90578   0.104345  
         H         H         0.77294   0.27624   0.85513   0.108437  
         H         H         0.70503   0.17843   0.88332   0.114325  
         H         H         0.69273   0.21094   0.83240   0.108697  
         N         N         0.23500   0.33659   0.06156   -0.301302           
         C         C         0.25451   0.31452   0.07270   0.069073  
         C         C         0.24409   0.35472   0.03163   0.271434  
         B         B         0.22282   0.23551   0.18840   0.717689  
         O         O         0.21122   0.80165   0.25525   -0.566508           
         C         C         0.87581   0.47938   0.78842   -0.304360           
         H         H         0.86069   0.48451   0.81017   0.113526  
         H         H         0.89084   0.45773   0.79418   0.103646  
         H         H         0.56630   0.52290   0.25482   0.105340  
         C         C         0.24511   0.70713   0.40035   0.069466  
         C         C         0.23280   0.74433   0.34273   -0.248024           
         C         C         0.26527   0.73401   0.39215   -0.146396           
         C         C         0.25923   0.75228   0.36372   -0.051853           
         C         C         0.21874   0.69888   0.37944   -0.121807           
         C         C         0.21277   0.71722   0.35122   -0.050164           
         H         H         0.27792   0.30827   0.06080   0.064836  
         H         H         0.28568   0.74042   0.40832   0.105085  
         H         H         0.27498   0.77305   0.35766   0.108248  
         H         H         0.20338   0.67802   0.38612   0.112226  
         H         H         0.19224   0.71086   0.33523   0.104562  
         N         N         0.76670   0.16644   0.05796   -0.299415           
         C         C         0.75176   0.19327   0.06521   0.066220  
         C         C         0.75836   0.14837   0.02762   0.271234  
         B         B         0.77608   0.26551   0.18798   0.718964  
         O         O         0.79671   0.69315   0.26018   -0.567325           
         C         C         0.12185   0.01954   0.78735   -0.303566           
         H         H         0.13664   0.01457   0.80944   0.113870  
         H         H         0.10675   0.04126   0.79276   0.104258  
         H         H         0.43480   0.98019   0.25424   0.104261  
         C         C         0.75436   0.79348   0.39915   0.069163  
         C         C         0.76965   0.75490   0.34315   -0.249965           
         C         C         0.73282   0.76859   0.38827   -0.148948           
         C         C         0.74047   0.74946   0.36072   -0.050287           
         C         C         0.78347   0.79927   0.38159   -0.122236           
         C         C         0.79081   0.78031   0.35403   -0.055258           
         H         H         0.73307   0.20450   0.04921   0.064672  
         H         H         0.71017   0.76431   0.40171   0.105568  
         H         H         0.72383   0.73004   0.35261   0.108403  
         H         H         0.79972   0.81876   0.39027   0.114567  
         H         H         0.81335   0.78473   0.34051   0.109055  
         N         N         0.26712   0.66543   0.55943   -0.299228           
         C         C         0.24865   0.68897   0.56932   0.067892  
         C         C         0.25808   0.64633   0.52985   0.271080  
         B         B         0.27714   0.76592   0.68850   0.719602  
         O         O         0.29052   0.19332   0.75832   -0.565946           
         C         C         0.62571   0.52198   0.28771   -0.301310           
         H         H         0.64075   0.51654   0.30951   0.115100  
         H         H         0.61122   0.54402   0.29350   0.105590  
         H         H         0.93526   0.48072   0.75514   0.102280  
         C         C         0.25908   0.28646   0.90526   0.070575  
         C         C         0.27154   0.24892   0.84775   -0.250599           
         C         C         0.24059   0.25800   0.89821   -0.146645           
         C         C         0.24669   0.23957   0.86980   -0.052730           
         C         C         0.28408   0.29595   0.88342   -0.121412           
         C         C         0.29014   0.27741   0.85524   -0.054305           
         H         H         0.22622   0.69654   0.55623   0.065313  
         H         H         0.22125   0.25060   0.91506   0.104009  
         H         H         0.23216   0.21767   0.86442   0.108645  
         H         H         0.29815   0.31802   0.88929   0.112328  
         H         H         0.30950   0.28484   0.83844   0.108831  
         N         N         0.93962   0.26664   0.33388   -0.303035           
         C         C         0.92825   0.24657   0.31214   0.071225  
         C         C         0.96916   0.25767   0.35262   0.273605  
         B         B         0.81056   0.27593   0.23549   0.718296  
         O         O         0.74194   0.29459   0.80185   -0.567955           
         C         C         0.21289   0.62372   0.47747   -0.300731           
         H         H         0.19145   0.63929   0.48222   0.113700  
         H         H         0.20703   0.60825   0.45594   0.106261  
         H         H         0.74477   0.93434   0.52363   0.104044  
         C         C         0.59615   0.25997   0.71008   0.070701  
         C         C         0.65565   0.27148   0.74413   -0.250810           
         C         C         0.60568   0.23945   0.73624   -0.147538           
         C         C         0.63504   0.24511   0.75297   -0.049108           
         C         C         0.61655   0.28644   0.70108   -0.121453           
         C         C         0.64575   0.29203   0.71790   -0.050578           
         H         H         0.93987   0.22281   0.30613   0.065479  
         H         H         0.58988   0.21899   0.74323   0.104296  
         H         H         0.64224   0.22914   0.77321   0.106095  
         H         H         0.60881   0.30211   0.68082   0.112808  
         H         H         0.66140   0.31262   0.71103   0.105600  
         N         N         0.44319   0.76963   0.83183   -0.300219           
         C         C         0.42746   0.74762   0.81532   0.065609  
         C         C         0.47117   0.75975   0.85247   0.270530  
         B         B         0.31267   0.77852   0.73477   0.720616  
         O         O         0.24485   0.79178   0.30311   -0.565590           
         C         C         0.71332   0.12649   0.97491   -0.301115           
         H         H         0.69204   0.14228   0.97973   0.113992  
         H         H         0.70738   0.11133   0.95320   0.104950  
         H         H         0.24785   0.43639   0.01965   0.104210  
         C         C         0.10052   0.75649   0.20890   0.070892  
         C         C         0.15960   0.76783   0.24372   -0.249518           
         C         C         0.10850   0.73747   0.23668   -0.147690           
         C         C         0.13770   0.74300   0.25375   -0.050268           
         C         C         0.12250   0.78103   0.19837   -0.123814           
         C         C         0.15146   0.78656   0.21560   -0.052933           
         H         H         0.43414   0.72133   0.81526   0.066130  
         H         H         0.09156   0.71843   0.24485   0.104576  
         H         H         0.14371   0.72828   0.27529   0.105547  
         H         H         0.11594   0.79543   0.17679   0.114787  
         H         H         0.16827   0.80576   0.20759   0.108118  
         N         N         0.43697   0.23495   0.66602   -0.299486           
         C         C         0.42871   0.25092   0.69205   0.065723  
         C         C         0.46716   0.24339   0.64839   0.272824  
         B         B         0.31030   0.22015   0.76658   0.717306  
         O         O         0.24197   0.20843   0.19668   -0.567621           
         C         C         0.71167   0.87461   0.52233   -0.298853           
         H         H         0.69017   0.85930   0.51653   0.114113  
         H         H         0.70561   0.88936   0.54424   0.106369  
         H         H         0.24481   0.56311   0.47977   0.102099  
         C         C         0.09752   0.24455   0.28960   0.069704  
         C         C         0.15471   0.23043   0.25305   -0.250764           
         C         C         0.10688   0.26479   0.26320   -0.146928           
         C         C         0.13509   0.25782   0.24522   -0.053171           
         C         C         0.11713   0.21725   0.29779   -0.121719           
         C         C         0.14515   0.21038   0.27974   -0.049669           
         H         H         0.44356   0.27095   0.70285   0.065851  
         H         H         0.09185   0.28601   0.25689   0.104931  
         H         H         0.14213   0.27357   0.22478   0.108976  
         H         H         0.10959   0.20199   0.31841   0.111734  
         H         H         0.16011   0.18915   0.28605   0.104669  
         N         N         0.94212   0.73260   0.16715   -0.299569           
         C         C         0.93294   0.75069   0.19141   0.066870  
         C         C         0.97122   0.74193   0.14804   0.273554  
         B         B         0.81582   0.72047   0.26827   0.718034  
         O         O         0.74184   0.70693   0.69679   -0.567619           
         C         C         0.21472   0.37667   0.02282   -0.304041           
         H         H         0.19299   0.36128   0.01831   0.114880  
         H         H         0.20922   0.39264   0.04402   0.104294  
         H         H         0.74452   0.06592   0.97634   0.103486  
         C         C         0.60082   0.74771   0.79260   0.069950  
         C         C         0.65808   0.73349   0.75638   -0.251782           
         C         C         0.60994   0.76756   0.76583   -0.145466           
         C         C         0.63815   0.76047   0.74792   -0.053049           
         C         C         0.62072   0.72085   0.80140   -0.121792           
         C         C         0.64883   0.71394   0.78354   -0.052764           
         H         H         0.94610   0.77313   0.19930   0.065737  
         H         H         0.59463   0.78844   0.75912   0.104349  
         H         H         0.64490   0.77578   0.72704   0.109796  
         H         H         0.61327   0.70587   0.82225   0.111398  
         H         H         0.66400   0.69298   0.79025   0.108314  
         N         N         0.56132   0.73680   0.83479   -0.297534           
         C         C         0.57053   0.75488   0.81067   0.065583  
         C         C         0.53136   0.74488   0.85295   0.270616  
         B         B         0.68894   0.72491   0.73603   0.718947  
         O         O         0.75988   0.70601   0.30464   -0.568089           
         C         C         0.28907   0.37419   0.97842   -0.301959           
         H         H         0.31054   0.35893   0.98405   0.114775  
         H         H         0.29478   0.38833   0.95613   0.104140  
         H         H         0.75398   0.06600   0.01908   0.105030  
         C         C         0.90350   0.74275   0.21061   0.068496  
         C         C         0.84686   0.72849   0.24794   -0.247473           
         C         C         0.89350   0.76405   0.23607   -0.146390           
         C         C         0.86561   0.75695   0.25448   -0.053822           
         C         C         0.88498   0.71415   0.20397   -0.120547           
         C         C         0.85716   0.70727   0.22231   -0.057220           
         H         H         0.55667   0.77643   0.80196   0.067918  
         H         H         0.90768   0.78626   0.24126   0.105023  
         H         H         0.85797   0.77354   0.27414   0.109049  
         H         H         0.89310   0.69792   0.18422   0.113325  
         H         H         0.84288   0.68518   0.21701   0.109368  
         N         N         0.05872   0.23422   0.33265   -0.298700           
         C         C         0.06759   0.25207   0.30822   0.067284  
         C         C         0.02930   0.24269   0.35156   0.270162  
         B         B         0.18581   0.22242   0.23281   0.718480  
         O         O         0.25976   0.20097   0.80828   -0.567203           
         C         C         0.78660   0.87505   0.47897   -0.304448           
         H         H         0.80787   0.85937   0.48421   0.113099  
         H         H         0.79286   0.89022   0.45753   0.102485  
         H         H         0.25412   0.56442   0.52254   0.103523  
         C         C         0.39814   0.24351   0.70962   0.068753  
         C         C         0.34046   0.22921   0.74533   -0.249836           
         C         C         0.38925   0.26284   0.73699   -0.146953           
         C         C         0.36080   0.25580   0.75451   -0.050355           
         C         C         0.37766   0.21721   0.69987   -0.121013           
         C         C         0.34936   0.21025   0.71749   -0.054523           
         H         H         0.05392   0.27389   0.29982   0.066463  
         H         H         0.40483   0.28341   0.74441   0.104816  
         H         H         0.35415   0.27074   0.77578   0.105850  
         H         H         0.38480   0.20267   0.67850   0.112276  
         H         H         0.33380   0.18968   0.71004   0.108665  
         N         N         0.06158   0.76623   0.16535   -0.298310           
         C         C         0.06944   0.75038   0.19150   0.063401  
         C         C         0.03118   0.75802   0.14766   0.273583  
         B         B         0.19093   0.77547   0.26399   0.717637  
         O         O         0.25796   0.79304   0.69659   -0.569509           
         C         C         0.78757   0.12565   0.02004   -0.303435           
         H         H         0.80950   0.14049   0.01501   0.114393  
         H         H         0.79279   0.11080   0.04201   0.103596  
         H         H         0.25732   0.43441   0.97705   0.102929  
         C         C         0.39872   0.75588   0.79509   0.070124  
         C         C         0.34309   0.77040   0.75615   -0.248132           
         C         C         0.38451   0.73154   0.77479   -0.147801           
         C         C         0.35738   0.73888   0.75521   -0.052126           
         C         C         0.38478   0.78758   0.79598   -0.120305           
         C         C         0.35720   0.79447   0.77711   -0.056154           
         H         H         0.05385   0.73115   0.20240   0.064804  
         H         H         0.39497   0.70687   0.77444   0.104899  
         H         H         0.34677   0.72006   0.73921   0.106150  
         H         H         0.39602   0.80605   0.81193   0.112776  
         H         H         0.34619   0.81886   0.77822   0.109501  
         N         N         0.55671   0.26940   0.66699   -0.299318           
         C         C         0.56544   0.25290   0.69243   0.065504  
         C         C         0.52701   0.25982   0.64875   0.271518  
         B         B         0.68777   0.27841   0.76339   0.716837  
         O         O         0.75687   0.29251   0.19646   -0.568189           
         C         C         0.28745   0.62389   0.52217   -0.299943           
         H         H         0.30917   0.63896   0.51693   0.114782  
         H         H         0.29309   0.60905   0.54404   0.108386  
         H         H         0.75451   0.93557   0.48107   0.102544  
         C         C         0.89828   0.25397   0.29346   0.068487  
         C         C         0.84116   0.26757   0.25647   -0.249148           
         C         C         0.88732   0.23181   0.26904   -0.147140           
         C         C         0.85923   0.23865   0.25069   -0.051481           
         C         C         0.88030   0.28291   0.29952   -0.123373           
         C         C         0.85215   0.28942   0.28140   -0.052476           
         H         H         0.55110   0.23216   0.70229   0.064934  
         H         H         0.90111   0.20931   0.26452   0.105242  
         H         H         0.85107   0.22157   0.23159   0.108301  
         H         H         0.88914   0.29970   0.31857   0.114817  
         H         H         0.83829   0.31180   0.28612   0.106444  
         N         N         0.33495   0.94125   0.26638   -0.297754           
         C         C         0.31240   0.93043   0.24705   0.067155  
         C         C         0.35358   0.97098   0.25743   0.271391  
         B         B         0.23754   0.81063   0.27536   0.716064  
         O         O         0.80691   0.74024   0.29489   -0.568796           
         C         C         0.47587   0.21301   0.62729   -0.301226           
         H         H         0.48113   0.19192   0.64335   0.112581  
         H         H         0.45445   0.20637   0.61221   0.104138  
         H         H         0.52152   0.74622   0.93512   0.104013  
         C         C         0.71153   0.59659   0.25786   0.070616  
         C         C         0.74867   0.65409   0.27090   -0.250632           
         C         C         0.73937   0.60392   0.23897   -0.148421           
         C         C         0.75765   0.63231   0.24539   -0.051902           
         C         C         0.70230   0.61823   0.28338   -0.122105           
         C         C         0.72066   0.64642   0.28973   -0.050047           
         H         H         0.30552   0.94269   0.22385   0.063621  
         H         H         0.74640   0.58720   0.21916   0.104771  
         H         H         0.77922   0.63781   0.23072   0.108428  
         H         H         0.68062   0.61214   0.29764   0.112786  
         H         H         0.71356   0.66299   0.30960   0.105613  
         N         N         0.83439   0.44189   0.76759   -0.300577           
         C         C         0.81351   0.43044   0.74675   0.067614  
         C         C         0.85367   0.47121   0.75871   0.271628  
         B         B         0.73443   0.31363   0.77442   0.717792  
         O         O         0.30346   0.23832   0.79492   -0.567988           
         C         C         0.97908   0.71244   0.12540   -0.302187           
         H         H         0.98440   0.69061   0.14039   0.113948  
         H         H         0.95731   0.70670   0.11042   0.103492  
         H         H         0.02246   0.24502   0.43345   0.104730  
         C         C         0.20492   0.09720   0.75572   0.067338  
         C         C         0.24406   0.15287   0.77077   -0.247632           
         C         C         0.22793   0.10892   0.73288   -0.145954           
         C         C         0.24732   0.13629   0.74040   -0.049806           
         C         C         0.20154   0.11352   0.78621   -0.121740           
         C         C         0.22073   0.14093   0.79344   -0.056279           
         H         H         0.80887   0.44181   0.72256   0.065888  
         H         H         0.23047   0.09637   0.70924   0.105615  
         H         H         0.26519   0.14515   0.72268   0.106201  
         H         H         0.18357   0.10408   0.80352   0.114535  
         H         H         0.21797   0.15354   0.81699   0.109646  
         N         N         0.66459   0.43930   0.23324   -0.301570           
         C         C         0.68745   0.42924   0.25247   0.067960  
         C         C         0.64628   0.46921   0.24215   0.274183  
         B         B         0.76485   0.31178   0.22383   0.718117  
         O         O         0.19499   0.24267   0.20679   -0.566989           
         C         C         0.52338   0.71461   0.87426   -0.303166           
         H         H         0.51854   0.69315   0.85836   0.112862  
         H         H         0.54497   0.70876   0.88932   0.103528  
         H         H         0.47708   0.24367   0.56624   0.104222  
         C         C         0.29133   0.10012   0.24419   0.068325  
         C         C         0.25381   0.15706   0.23061   -0.248869           
         C         C         0.26500   0.10898   0.26463   -0.144338           
         C         C         0.24647   0.13698   0.25783   -0.053828           
         C         C         0.29894   0.12009   0.21694   -0.120383           
         C         C         0.28049   0.14806   0.21042   -0.054614           
         H         H         0.69446   0.44217   0.27539   0.065248  
         H         H         0.25919   0.09371   0.28586   0.103866  
         H         H         0.22594   0.14352   0.27355   0.108932  
         H         H         0.31942   0.11293   0.20141   0.112134  
         H         H         0.28630   0.16332   0.18922   0.108634  
         N         N         0.16377   0.93781   0.73389   -0.298203           
         C         C         0.18588   0.92770   0.75394   0.067558  
         C         C         0.14455   0.96708   0.74251   0.269160  
         B         B         0.26633   0.81334   0.72304   0.720162  
         O         O         0.69664   0.74316   0.70814   -0.567989           
         C         C         0.02184   0.21273   0.37350   -0.299737           
         H         H         0.01681   0.19099   0.35805   0.113684  
         H         H         0.04362   0.20715   0.38840   0.106181  
         H         H         0.97900   0.74554   0.06579   0.104041  
         C         C         0.79386   0.60219   0.74814   0.068599  
         C         C         0.75562   0.65834   0.73376   -0.249520           
         C         C         0.76983   0.61310   0.77038   -0.146398           
         C         C         0.75080   0.64066   0.76313   -0.050186           
         C         C         0.79887   0.61977   0.71872   -0.120810           
         C         C         0.78010   0.64739   0.71183   -0.053198           
         H         H         0.19156   0.94008   0.77751   0.066621  
         H         H         0.76609   0.59978   0.79332   0.104505  
         H         H         0.73196   0.64877   0.78024   0.105740  
         H         H         0.81770   0.61111   0.70192   0.112451  
         H         H         0.78401   0.66100   0.68911   0.108634  
         N         N         0.83372   0.56081   0.73493   -0.299443           
         C         C         0.81330   0.57271   0.75577   0.067557  
         C         C         0.85329   0.53175   0.74373   0.271444  
         B         B         0.73479   0.68896   0.72510   0.718672  
         O         O         0.30383   0.75820   0.70844   -0.568859           
         C         C         0.97740   0.28738   0.37486   -0.305037           
         H         H         0.98202   0.30921   0.35962   0.114368  
         H         H         0.95599   0.29286   0.39022   0.102232  
         H         H         0.02126   0.75570   0.06562   0.103982  
         C         C         0.20561   0.89851   0.74636   0.068218  
         C         C         0.24486   0.84348   0.73145   -0.251937           
         C         C         0.23149   0.88964   0.76740   -0.146371           
         C         C         0.25102   0.86254   0.75986   -0.050349           
         C         C         0.19920   0.87954   0.71791   -0.123544           
         C         C         0.21853   0.85241   0.71071   -0.052129           
         H         H         0.80904   0.56192   0.78029   0.066629  
         H         H         0.23619   0.90423   0.78953   0.106396  
         H         H         0.27123   0.85576   0.77599   0.106851  
         H         H         0.17888   0.88687   0.70217   0.114729  
         H         H         0.21355   0.83771   0.68875   0.107927  
         N         N         0.33453   0.06128   0.23380   -0.300592           
         C         C         0.31013   0.07016   0.25155   0.066641  
         C         C         0.35313   0.03152   0.24240   0.273531  
         B         B         0.23290   0.18782   0.22244   0.719092  
         O         O         0.80205   0.25659   0.20835   -0.568361           
         C         C         0.47874   0.78925   0.87529   -0.295733           
         H         H         0.48366   0.81122   0.86038   0.114276  
         H         H         0.45715   0.79464   0.89045   0.105861  
         H         H         0.51925   0.25415   0.56678   0.104351  
         C         C         0.70638   0.39936   0.24526   0.068712  
         C         C         0.74401   0.34255   0.23193   -0.249394           
         C         C         0.73208   0.39023   0.26646   -0.146465           
         C         C         0.75070   0.36224   0.25981   -0.049968           
         C         C         0.69941   0.37974   0.21738   -0.122093           
         C         C         0.71794   0.35181   0.21098   -0.054242           
         H         H         0.30168   0.05625   0.27320   0.066472  
         H         H         0.73735   0.40536   0.28809   0.104687  
         H         H         0.77068   0.35539   0.27621   0.106094  
         H         H         0.67936   0.38713   0.20134   0.114433  
         H         H         0.71256   0.33664   0.18943   0.108331  
         N         N         0.16417   0.05629   0.76803   -0.301052           
         C         C         0.18475   0.06829   0.74747   0.067980  
         C         C         0.14444   0.02749   0.75817   0.272395  
         B         B         0.26547   0.18336   0.77931   0.715102  
         O         O         0.69652   0.25854   0.78991   -0.566224           
         C         C         0.02249   0.78803   0.12617   -0.300561           
         H         H         0.01724   0.80948   0.14189   0.113675  
         H         H         0.04383   0.79437   0.11106   0.105424  
         H         H         0.98009   0.25448   0.43492   0.102590  
         C         C         0.79402   0.40083   0.75372   0.070405  
         C         C         0.75558   0.34432   0.76651   -0.249255           
         C         C         0.76933   0.39095   0.73151   -0.148471           
         C         C         0.75021   0.36320   0.73798   -0.049586           
         C         C         0.79958   0.38210   0.78232   -0.121704           
         C         C         0.78075   0.35426   0.78841   -0.055808           
         H         H         0.18858   0.05790   0.72264   0.066808  
         H         H         0.76517   0.40534   0.70929   0.105792  
         H         H         0.73087   0.35593   0.72090   0.107577  
         H         H         0.81887   0.39008   0.79913   0.114518  
         H         H         0.78516   0.33975   0.81048   0.108561  
         N         N         0.66671   0.55924   0.26676   -0.297414           
         C         C         0.69266   0.56653   0.25061   0.064624  
         C         C         0.64788   0.52959   0.25803   0.271072  
         B         B         0.76905   0.68545   0.27867   0.717641  
         O         O         0.19840   0.75684   0.29175   -0.567913           
         C         C         0.51879   0.28879   0.62580   -0.301610           
         H         H         0.51313   0.31084   0.64050   0.114479  
         H         H         0.54054   0.29452   0.61103   0.103678  
         H         H         0.47908   0.75540   0.93445   0.104260  
         C         C         0.29402   0.90012   0.25438   0.069858  
         C         C         0.25798   0.84190   0.26741   -0.249354           
         C         C         0.26936   0.88937   0.23255   -0.148770           
         C         C         0.25157   0.86074   0.23903   -0.051966           
         C         C         0.30068   0.88144   0.28280   -0.122781           
         C         C         0.28300   0.85284   0.28903   -0.051927           
         H         H         0.70237   0.55118   0.23046   0.065205  
         H         H         0.26421   0.90374   0.21052   0.106320  
         H         H         0.23240   0.85277   0.22207   0.108419  
         H         H         0.31984   0.89010   0.29945   0.115190  
         H         H         0.28825   0.83852   0.31104   0.106029  
         N         N         0.58349   0.51846   0.19119   -0.300695           
         C         C         0.56437   0.49745   0.17728   0.067660  
         C         C         0.60333   0.50826   0.21971   0.270908  
         B         B         0.48303   0.53032   0.06323   0.719093  
         O         O         0.05666   0.54286   0.99277   -0.566331           
         C         C         0.72746   0.87594   0.46284   -0.302475           
         H         H         0.73292   0.89166   0.44157   0.114349  
         H         H         0.70575   0.86118   0.45643   0.103426  
         H         H         0.77299   0.18542   0.99247   0.102219  
         C         C         0.95880   0.50481   0.85048   0.069811  
         C         C         0.99659   0.51711   0.90785   -0.251558           
         C         C         0.98342   0.48267   0.86021   -0.146228           
         C         C         0.00214   0.48885   0.88841   -0.052072           
         C         C         0.95292   0.53302   0.86987   -0.121552           
         C         C         0.97141   0.53887   0.89810   -0.051576           
         H         H         0.56177   0.47177   0.18569   0.065879  
         H         H         0.98785   0.46069   0.84538   0.104536  
         H         H         0.02132   0.47172   0.89562   0.108501  
         H         H         0.93373   0.54981   0.86199   0.112625  
         H         H         0.96671   0.56067   0.91303   0.107314  
         N         N         0.08425   0.01303   0.68815   -0.296092           
         C         C         0.05675   -0.00073  0.68127   0.061672  
         C         C         0.10120   0.00500   0.71898   0.270961  
         B         B         0.98489   0.02545   0.55962   0.718127  
         O         O         0.55329   0.04247   0.49481   -0.567498           
         C         C         0.22965   0.37424   0.96312   -0.296986           
         H         H         0.23468   0.38867   0.94086   0.113807  
         H         H         0.20796   0.35898   0.95798   0.106058  
         H         H         0.27212   0.68334   0.49443   0.102441  
         C         C         0.45941   0.00820   0.34919   0.069602  
         C         C         0.49412   0.01848   0.40896   -0.249969           
         C         C         0.48763   0.98976   0.35641   -0.147700           
         C         C         0.50462   0.99474   0.38591   -0.050412           
         C         C         0.44846   0.03172   0.37224   -0.123274           
         C         C         0.46564   0.03675   0.40149   -0.050772           
         H         H         0.04432   0.98195   0.69788   0.064904  
         H         H         0.49615   0.97158   0.33859   0.105871  
         H         H         0.52649   0.98039   0.39117   0.105661  
         H         H         0.42657   0.04577   0.36634   0.113475  
         H         H         0.45729   0.05523   0.41904   0.105530  
         N         N         0.91535   0.48539   0.69056   -0.301590           
         C         C         0.93864   0.50418   0.68075   0.068318  
         C         C         0.89712   0.49405   0.72052   0.274009  
         B         B         0.01387   0.47481   0.56196   0.716015  
         O         O         0.44284   0.45223   0.48688   -0.569444           
         C         C         0.77270   0.12499   0.96013   -0.301676           
         H         H         0.76747   0.10941   0.93853   0.115457  
         H         H         0.79453   0.13973   0.95437   0.106211  
         H         H         0.72744   0.81539   0.49415   0.104893  
         C         C         0.54169   0.49529   0.34900   0.069527  
         C         C         0.50460   0.48145   0.40595   -0.250302           
         C         C         0.51666   0.51675   0.35911   -0.147258           
         C         C         0.49832   0.50986   0.38718   -0.049697           
         C         C         0.54818   0.46683   0.36764   -0.122053           
         C         C         0.52993   0.46018   0.39564   -0.050040           
         H         H         0.94634   0.52663   0.69408   0.065977  
         H         H         0.51168   0.53880   0.34471   0.106799  
         H         H         0.47881   0.52643   0.39474   0.105805  
         H         H         0.56758   0.45049   0.35936   0.112275  
         H         H         0.53485   0.43808   0.40992   0.104838  
         N         N         0.41677   0.98521   0.19039   -0.301076           
         C         C         0.43690   0.00642   0.17862   0.068503  
         C         C         0.39719   0.99399   0.21953   0.272062  
         B         B         0.51504   0.97804   0.06142   0.719373  
         O         O         0.94637   0.95835   0.99338   -0.567799           
         C         C         0.27214   0.62261   0.46236   -0.300403           
         H         H         0.26669   0.60690   0.44089   0.114845  
         H         H         0.29389   0.63733   0.45634   0.107344  
         H         H         0.22982   0.31575   0.99813   0.104043  
         C         C         0.03861   0.99295   0.84788   0.070379  
         C         C         0.00208   0.97962   0.90529   -0.251311           
         C         C         0.01409   0.01484   0.85833   -0.149436           
         C         C         0.99596   0.00815   0.88660   -0.048597           
         C         C         0.04473   0.96423   0.86624   -0.119556           
         C         C         0.02678   0.95785   0.89450   -0.052609           
         H         H         0.44069   0.03108   0.18951   0.065898  
         H         H         0.00946   0.03708   0.84410   0.106762  
         H         H         0.97689   0.02511   0.89448   0.105656  
         H         H         0.06377   0.94763   0.85766   0.112054  
         H         H         0.03154   0.93568   0.90872   0.105699  
         N         N         0.08031   0.98079   0.80829   -0.300007           
         C         C         0.05778   0.00034   0.81826   0.066853  
         C         C         0.09989   0.98966   0.77935   0.273240  
         B         B         0.98225   0.97196   0.93682   0.719424  
         O         O         0.55216   0.96169   0.00649   -0.570399           
         C         C         0.22806   0.62456   0.53726   -0.302532           
         H         H         0.23281   0.60962   0.55927   0.115307  
         H         H         0.20666   0.64002   0.54260   0.103751  
         H         H         0.27221   0.31555   0.00775   0.102753  
         C         C         0.45654   -0.00077  0.14916   0.067993  
         C         C         0.49446   0.98607   0.09243   -0.249064           
         C         C         0.47989   0.02221   0.13819   -0.145343           
         C         C         0.49874   0.01557   0.11034   -0.050189           
         C         C         0.45225   0.96956   0.13152   -0.121726           
         C         C         0.47081   0.96329   0.10360   -0.052834           
         H         H         0.05160   0.02362   0.80581   0.065639  
         H         H         0.48323   0.04523   0.15173   0.104360  
         H         H         0.51697   0.03331   0.10213   0.105490  
         H         H         0.43409   0.95209   0.14041   0.112392  
         H         H         0.46731   0.94040   0.08994   0.107944  
         N         N         0.58407   0.48408   0.30968   -0.299163           
         C         C         0.56052   0.50270   0.31912   0.066736  
         C         C         0.60288   0.49260   0.28011   0.269789  
         B         B         0.48372   0.47260   0.43644   0.719036  
         O         O         0.05219   0.45825   0.50809   -0.570253           
         C         C         0.72819   0.12669   0.03472   -0.299225           
         H         H         0.73274   0.11152   0.05660   0.114105  
         H         H         0.70695   0.14233   0.04019   0.106661  
         H         H         0.76966   0.81471   0.50445   0.105266  
         C         C         0.95694   0.49689   0.65047   0.068196  
         C         C         0.99322   0.48316   0.59283   -0.250885           
         C         C         0.98316   0.51734   0.64126   -0.146571           
         C         C         0.00112   0.51044   0.61291   -0.048003           
         C         C         0.94870   0.46965   0.63045   -0.120163           
         C         C         0.96653   0.46304   0.60210   -0.053698           
         H         H         0.55299   0.52509   0.30585   0.066874  
         H         H         0.98940   0.53855   0.65661   0.104658  
         H         H         0.02167   0.52611   0.60614   0.105708  
         H         H         0.92825   0.45421   0.63793   0.111748  
         H         H         0.96020   0.44187   0.58676   0.108429  
         N         N         0.41526   0.01732   0.31074   -0.299273           
         C         C         0.44204   0.00242   0.31785   0.064534  
         C         C         0.39756   0.00926   0.28017   0.272433  
         B         B         0.51421   0.02568   0.44075   0.718350  
         O         O         0.94652   0.04149   0.50509   -0.566289           
         C         C         0.27401   0.37696   0.03813   -0.303515           
         H         H         0.26917   0.39333   0.05918   0.112818  
         H         H         0.29550   0.36207   0.04459   0.104551  
         H         H         0.22974   0.68397   0.50381   0.103422  
         C         C         0.03957   0.00556   0.65008   0.071546  
         C         C         0.00494   0.01759   0.59103   -0.252483           
         C         C         0.01024   0.98865   0.64322   -0.148094           
         C         C         0.99324   0.99451   0.61400   -0.051758           
         C         C         0.05176   0.02828   0.62702   -0.125595           
         C         C         0.03458   0.03421   0.59806   -0.051189           
         H         H         0.45358   0.98423   0.30140   0.065603  
         H         H         0.00090   0.97098   0.66102   0.105163  
         H         H         0.97049   0.98143   0.60879   0.108367  
         H         H         0.07459   0.04095   0.63277   0.114701  
         H         H         0.04383   0.05206   0.58040   0.108277  
         N         N         0.91727   0.51807   0.81050   -0.300921           
         C         C         0.93954   0.49817   0.82050   0.066060  
         C         C         0.89785   0.50934   0.78109   0.274297  
         B         B         0.01776   0.52526   0.93867   0.720414  
         O         O         0.44498   0.54646   0.00845   -0.565681           
         C         C         0.77097   0.87440   0.53839   -0.307060           
         H         H         0.76582   0.88942   0.56035   0.115448  
         H         H         0.79242   0.85915   0.54409   0.104847  
         H         H         0.73048   0.18641   0.00139   0.102953  
         C         C         0.54414   0.50616   0.14859   0.068810  
         C         C         0.50448   0.52160   0.09352   -0.248761           
         C         C         0.52098   0.48337   0.13658   -0.146619           
         C         C         0.50119   0.49111   0.10965   -0.051844           
         C         C         0.54746   0.53682   0.13277   -0.121944           
         C         C         0.52811   0.54415   0.10555   -0.055500           
         H         H         0.94546   0.47499   0.80761   0.066139  
         H         H         0.51857   0.45956   0.14865   0.104716  
         H         H         0.48311   0.47345   0.10068   0.106727  
         H         H         0.56555   0.55414   0.14231   0.115307  
         H         H         0.53102   0.56771   0.09314   0.109235  
         N         N         0.51495   0.19018   0.58686   -0.301270           
         C         C         0.49522   0.17865   0.56494   0.069321  
         C         C         0.50566   0.22005   0.60524   0.269928  
         B         B         0.52502   0.06044   0.48808   0.717344  
         O         O         0.54071   0.99838   0.05171   -0.566456           
         C         C         0.87555   0.46405   0.72872   -0.305126           
         H         H         0.89113   0.44262   0.73383   0.112547  
         H         H         0.86064   0.45792   0.70696   0.103599  
         H         H         0.18139   0.99228   0.77280   0.104411  
         C         C         0.50757   0.84988   0.96111   0.071305  
         C         C         0.51951   0.90893   0.99651   -0.251394           
         C         C         0.48887   0.85780   0.98906   -0.147151           
         C         C         0.49470   0.88698   0.00642   -0.051381           
         C         C         0.53237   0.87171   0.95096   -0.124970           
         C         C         0.53822   0.90063   0.96847   -0.052980           
         H         H         0.47167   0.19034   0.55875   0.065488  
         H         H         0.46970   0.84093   0.99699   0.104121  
         H         H         0.48008   0.89300   0.02799   0.108042  
         H         H         0.54658   0.86515   0.92929   0.114462  
         H         H         0.55756   0.91732   0.96063   0.108348  
         N         N         0.01752   0.69094   0.08365   -0.297925           
         C         C         0.99793   0.67987   0.06142   0.066852  
         C         C         0.00848   0.72021   0.10305   0.269087  
         B         B         0.02904   0.56143   0.98507   0.718604  
         O         O         0.04179   0.49323   0.55477   -0.566239           
         C         C         0.37550   0.96394   0.22738   -0.304019           
         H         H         0.39101   0.94241   0.23223   0.113524  
         H         H         0.36038   0.95804   0.20567   0.105140  
         H         H         0.68459   0.49359   0.27136   0.103193  
         C         C         0.00357   0.35074   0.45683   0.068814  
         C         C         0.01668   0.40831   0.49429   -0.250885           
         C         C         0.98151   0.36137   0.48119   -0.148914           
         C         C         0.98812   0.38965   0.49975   -0.050679           
         C         C         0.03215   0.36928   0.45110   -0.121572           
         C         C         0.03844   0.39758   0.46947   -0.054313           
         H         H         0.97442   0.69168   0.05528   0.066606  
         H         H         0.95925   0.34722   0.48556   0.105498  
         H         H         0.97113   0.39755   0.51880   0.107914  
         H         H         0.04885   0.36074   0.43207   0.114362  
         H         H         0.06059   0.41179   0.46496   0.108639  
         N         N         0.48439   0.69190   0.91514   -0.302517           
         C         C         0.50425   0.68084   0.93700   0.068843  
         C         C         0.49348   0.72134   0.89623   0.273575  
         B         B         0.47185   0.56596   0.01694   0.718100  
         O         O         0.45656   0.49147   0.44493   -0.566979           
         C         C         0.12173   0.95976   0.77168   -0.301592           
         H         H         0.10632   0.93825   0.76591   0.113935  
         H         H         0.13607   0.95369   0.79379   0.103274  
         H         H         0.81573   0.49633   0.73017   0.105194  
         C         C         0.49283   0.34766   0.54024   0.070185  
         C         C         0.47929   0.40360   0.50113   -0.250125           
         C         C         0.51464   0.35743   0.51536   -0.149102           
         C         C         0.50790   0.38499   0.49605   -0.051528           
         C         C         0.46408   0.36600   0.54541   -0.121561           
         C         C         0.45757   0.39346   0.52619   -0.053499           
         H         H         0.52806   0.69242   0.94265   0.065889  
         H         H         0.53690   0.34326   0.51131   0.107052  
         H         H         0.52489   0.39237   0.47682   0.108342  
         H         H         0.44753   0.35805   0.56478   0.112838  
         H         H         0.43538   0.40764   0.53033   0.108246  
         N         N         0.98439   0.18931   0.41408   -0.299053           
         C         C         0.00126   0.18082   0.43936   0.066260  
         C         C         0.99248   0.21963   0.39622   0.271705  
         B         B         0.97460   0.05978   0.51227   0.717527  
         O         O         0.95583   0.99172   0.94543   -0.567749           
         C         C         0.62404   0.46231   0.27189   -0.303109           
         H         H         0.60822   0.44097   0.26661   0.114352  
         H         H         0.63884   0.45612   0.29365   0.104275  
         H         H         0.31560   0.99606   0.22882   0.103978  
         C         C         0.99361   0.84927   0.04204   0.069619  
         C         C         0.97969   0.90626   0.00457   -0.250440           
         C         C         0.01392   0.85842   0.01568   -0.148652           
         C         C         0.00695   0.88642   0.99713   -0.049965           
         C         C         0.96613   0.86879   0.04943   -0.123791           
         C         C         0.95941   0.89676   0.03101   -0.054087           
         H         H         0.02172   0.19561   0.44928   0.066030  
         H         H         0.03526   0.84345   0.00989   0.105504  
         H         H         0.02274   0.89327   0.97671   0.108566  
         H         H         0.95063   0.86136   0.06984   0.114729  
         H         H         0.93815   0.91179   0.03683   0.108419  
         N         N         0.98349   0.81025   0.08545   -0.300940           
         C         C         0.00129   0.81955   0.06117   0.068436  
         C         C         0.99263   0.78052   0.10398   0.273693  
         B         B         0.97198   0.93764   0.98433   0.719462  
         O         O         0.95604   0.00830   0.55313   -0.568206           
         C         C         0.62611   0.53743   0.22800   -0.300288           
         H         H         0.61147   0.55956   0.23290   0.115168  
         H         H         0.64159   0.54277   0.20656   0.106207  
         H         H         0.31599   0.00564   0.27153   0.103460  
         C         C         0.99456   0.14997   0.45699   0.070387  
         C         C         0.98244   0.09115   0.49209   -0.251885           
         C         C         0.01483   0.14087   0.48348   -0.148381           
         C         C         0.00891   0.11180   0.50069   -0.049989           
         C         C         0.96818   0.12936   0.44799   -0.122735           
         C         C         0.96226   0.10056   0.46539   -0.052169           
         H         H         0.02331   0.80617   0.05308   0.065375  
         H         H         0.03523   0.15682   0.49045   0.104900  
         H         H         0.02462   0.10495   0.52126   0.107403  
         H         H         0.95278   0.13680   0.42740   0.112729  
         H         H         0.94162   0.08488   0.45862   0.108008  
         N         N         0.48057   0.30879   0.58301   -0.300115           
         C         C         0.50030   0.31871   0.56056   0.067578  
         C         C         0.48954   0.28023   0.60329   0.270060  
         B         B         0.47124   0.43453   0.48031   0.717539  
         O         O         0.45661   0.51047   0.05410   -0.567008           
         C         C         0.12308   0.03482   0.72770   -0.302902           
         H         H         0.10786   0.05660   0.73253   0.112566  
         H         H         0.13839   0.04042   0.70624   0.102632  
         H         H         0.81611   0.50614   0.77281   0.105958  
         C         C         0.49626   0.65154   0.95657   0.068877  
         C         C         0.48090   0.59608   0.99547   -0.250813           
         C         C         0.51786   0.64109   0.98147   -0.145900           
         C         C         0.51012   0.61382   0.00079   -0.052982           
         C         C         0.46705   0.63388   0.95097   -0.122664           
         C         C         0.45968   0.60652   0.97002   -0.053415           
         H         H         0.52381   0.30656   0.55522   0.066253  
         H         H         0.54064   0.65454   0.98553   0.104996  
         H         H         0.52681   0.60594   0.02017   0.109094  
         H         H         0.45080   0.64231   0.93146   0.114490  
         H         H         0.43715   0.59282   0.96555   0.107550  
         N         N         0.01653   0.30960   0.41608   -0.301689           
         C         C         0.99640   0.32075   0.43760   0.069220  
         C         C         0.00753   0.28025   0.39655   0.271605  
         B         B         0.02467   0.43936   0.51527   0.720503  
         O         O         0.04527   0.50673   0.94667   -0.566788           
         C         C         0.37545   0.03896   0.27227   -0.300035           
         H         H         0.39050   0.06081   0.26716   0.114710  
         H         H         0.36054   0.04466   0.29402   0.105872  
         H         H         0.68460   0.50326   0.22876   0.102113  
         C         C         0.00571   0.64989   0.04253   0.069804  
         C         C         0.02037   0.59249   0.00563   -0.249544           
         C         C         0.98481   0.63937   0.01694   -0.146422           
         C         C         0.99215   0.61115   0.99867   -0.054390           
         C         C         0.03392   0.63136   0.04975   -0.122279           
         C         C         0.04098   0.60316   0.03162   -0.051997           
         H         H         0.97264   0.30901   0.44288   0.065282  
         H         H         0.96288   0.65357   0.01141   0.104889  
         H         H         0.97600   0.60333   0.97870   0.108965  
         H         H         0.04969   0.63984   0.06973   0.114479  
         H         H         0.06284   0.58894   0.03729   0.105917  
         N         N         0.51631   0.81196   0.91638   -0.295335           
         C         C         0.50086   0.81915   0.94291   0.063518  
         C         C         0.50831   0.78191   0.89779   0.269253  
         B         B         0.52662   0.94112   0.01595   0.720484  
         O         O         0.54205   0.00734   0.44818   -0.568415           
         C         C         0.87584   0.53911   0.77341   -0.306801           
         H         H         0.89109   0.56080   0.76816   0.113201  
         H         H         0.86133   0.54490   0.79542   0.104086  
         H         H         0.18266   0.00220   0.73030   0.105554  
         C         C         0.50264   0.14848   0.54629   0.068834  
         C         C         0.51635   0.09095   0.50935   -0.249445           
         C         C         0.48072   0.13740   0.52179   -0.145928           
         C         C         0.48759   0.10909   0.50350   -0.050067           
         C         C         0.53135   0.13037   0.55249   -0.121578           
         C         C         0.53792   0.10205   0.53435   -0.054820           
         H         H         0.48172   0.80332   0.95355   0.065316  
         H         H         0.45842   0.15132   0.51712   0.104549  
         H         H         0.47070   0.10084   0.48434   0.106115  
         H         H         0.54796   0.13926   0.57159   0.114779  
         H         H         0.56013   0.08808   0.53911   0.108466  
         N         N         0.18997   0.58378   0.51651   -0.299462           
         C         C         0.18074   0.55903   0.49897   0.066352  
         C         C         0.21987   0.60197   0.50774   0.272890  
         B         B         0.06107   0.48505   0.52770   0.718896  
         O         O         0.99486   0.05025   0.53824   -0.567355           
         C         C         0.46408   0.72935   0.87385   -0.311246           
         H         H         0.44231   0.73378   0.88904   0.112943  
         H         H         0.45899   0.70754   0.85855   0.100670  
         H         H         0.99694   0.77019   0.18648   0.103072  
         C         C         0.84922   0.95704   0.50511   0.067953  
         C         C         0.90627   0.99474   0.51767   -0.250219           
         C         C         0.85962   0.98108   0.48254   -0.146796           
         C         C         0.88768   -0.00024  0.48884   -0.053110           
         C         C         0.86772   0.95175   0.53395   -0.121411           
         C         C         0.89579   0.97023   0.53993   -0.052259           
         H         H         0.19454   0.54985   0.47753   0.065269  
         H         H         0.84546   0.98505   0.46010   0.105858  
         H         H         0.89547   0.01849   0.47139   0.109375  
         H         H         0.85936   0.93296   0.55103   0.113642  
         H         H         0.91009   0.96602   0.56219   0.108267  
         N         N         0.68996   0.08641   0.01358   -0.298076           
         C         C         0.67946   0.06325   0.99467   0.066342  
         C         C         0.71993   0.10445   0.00499   0.271245  
         B         B         0.56008   0.98966   0.02484   0.719792  
         O         O         0.49028   0.55825   0.04478   -0.567639           
         C         C         0.96240   0.22770   0.37474   -0.303489           
         H         H         0.94117   0.23271   0.39053   0.113872  
         H         H         0.95636   0.20591   0.35971   0.102988  
         H         H         0.49183   0.27395   0.68588   0.104019  
         C         C         0.35135   0.45854   0.00346   0.069939  
         C         C         0.40699   0.49743   0.01822   -0.249733           
         C         C         0.36087   0.48414   0.98229   -0.148392           
         C         C         0.38824   0.50345   0.98971   -0.047862           
         C         C         0.37004   0.45225   0.03197   -0.123016           
         C         C         0.39743   0.47134   0.03905   -0.053693           
         H         H         0.69218   0.05540   0.97205   0.066439  
         H         H         0.34653   0.48885   0.96012   0.104872  
         H         H         0.39538   0.52340   0.97337   0.105290  
         H         H         0.36231   0.43225   0.04797   0.113416  
         H         H         0.41190   0.46642   0.06106   0.108814  
         N         N         0.68943   0.91580   0.48479   -0.298360           
         C         C         0.68221   0.94226   0.50058   0.063218  
         C         C         0.71928   0.89749   0.49309   0.270407  
         B         B         0.56193   0.01586   0.47489   0.717826  
         O         O         0.49174   0.44493   0.45505   -0.567483           
         C         C         0.96340   0.77197   0.12629   -0.303049           
         H         H         0.94162   0.76680   0.11116   0.113437  
         H         H         0.95772   0.79350   0.14174   0.105437  
         H         H         0.49655   0.73185   0.81431   0.108012  
         C         C         0.34655   0.53706   0.49087   0.071641  
         C         C         0.40432   0.50101   0.47780   -0.251744           
         C         C         0.35359   0.50811   0.50842   -0.148751           
         C         C         0.38214   0.49044   0.50210   -0.051032           
         C         C         0.36873   0.54802   0.46677   -0.122888           
         C         C         0.39701   0.53017   0.46037   -0.050935           
         H         H         0.69775   0.95280   0.52021   0.066558  
         H         H         0.33648   0.49965   0.52712   0.103990  
         H         H         0.38745   0.46812   0.51589   0.108221  
         H         H         0.36294   0.57047   0.45343   0.113108  
         H         H         0.41395   0.53854   0.44150   0.105840  
         N         N         0.19289   0.41653   0.98270   -0.299381           
         C         C         0.18291   0.43973   0.00173   0.066264  
         C         C         0.22206   0.39757   0.99213   0.271261  
         B         B         0.06487   0.51559   0.97351   0.716042  
         O         O         0.99036   0.94511   0.95651   -0.568661           
         C         C         0.45979   0.27244   0.62515   -0.299901           
         H         H         0.43843   0.26659   0.60966   0.113781  
         H         H         0.45363   0.29448   0.63967   0.107969  
         H         H         0.99359   0.22880   0.31430   0.104334  
         C         C         0.84999   0.04318   0.99509   0.068955  
         C         C         0.90703   0.00593   0.98186   -0.249230           
         C         C         0.86051   0.01874   0.01718   -0.147807           
         C         C         0.88853   0.00027   0.01054   -0.050561           
         C         C         0.86850   0.04924   0.96652   -0.123430           
         C         C         0.89650   0.03096   0.96018   -0.054271           
         H         H         0.19560   0.44684   0.02472   0.065319  
         H         H         0.84645   0.01427   0.03949   0.104711  
         H         H         0.89627   0.98117   0.02761   0.107729  
         H         H         0.86015   0.06845   0.94988   0.115292  
         H         H         0.91068   0.03575   0.93804   0.108511  
         N         N         0.80913   0.08354   0.98172   -0.300040           
         C         C         0.82009   0.06208   0.00210   0.068431  
         C         C         0.78010   0.10318   0.99022   0.271094  
         B         B         0.93754   0.98484   0.97352   0.717420  
         O         O         0.00958   0.55213   0.95838   -0.570589           
         C         C         0.53492   0.22931   0.62744   -0.299103           
         H         H         0.55658   0.23426   0.61227   0.113987  
         H         H         0.54088   0.20832   0.64337   0.105299  
         H         H         0.00312   0.27149   0.31420   0.104570  
         C         C         0.15314   0.45856   0.99434   0.069743  
         C         C         0.09595   0.49530   0.98133   -0.248148           
         C         C         0.14335   0.48385   0.01593   -0.145605           
         C         C         0.11517   0.50204   0.00942   -0.051322           
         C         C         0.13404   0.45159   0.96619   -0.123083           
         C         C         0.10587   0.46965   0.95998   -0.054759           
         H         H         0.80823   0.05661   0.02583   0.066265  
         H         H         0.15808   0.48913   0.03777   0.105826  
         H         H         0.10772   0.52166   0.02613   0.106131  
         H         H         0.14200   0.43192   0.94981   0.114696  
         H         H         0.09102   0.46419   0.93829   0.108889  
         N         N         0.31001   0.58307   0.48463   -0.297868           
         C         C         0.31612   0.55508   0.49787   0.062406  
         C         C         0.27996   0.60106   0.49261   0.274030  
         B         B         0.43560   0.48100   0.46980   0.718738  
         O         O         0.50508   0.05144   0.46160   -0.566834           
         C         C         0.03835   0.72853   0.12477   -0.298258           
         H         H         0.05952   0.73410   0.10912   0.113449  
         H         H         0.04474   0.70683   0.13953   0.106656  
         H         H         0.50630   0.77448   0.81545   0.104766  
         C         C         0.65190   0.96054   0.49381   0.070683  
         C         C         0.59364   0.99618   0.48191   -0.249142           
         C         C         0.64340   0.98743   0.51400   -0.146597           
         C         C         0.61458   0.00488   0.50822   -0.053507           
         C         C         0.63112   0.95167   0.46745   -0.121748           
         C         C         0.60258   0.96930   0.46165   -0.055538           
         H         H         0.29945   0.54284   0.51524   0.065969  
         H         H         0.65952   0.99440   0.53433   0.105162  
         H         H         0.60810   0.02552   0.52410   0.108986  
         H         H         0.63811   0.93090   0.45198   0.112384  
         H         H         0.58664   0.96252   0.44115   0.108621  
         N         N         0.31164   0.41681   0.01575   -0.300417           
         C         C         0.32189   0.43905   0.99589   0.068645  
         C         C         0.28215   0.39767   0.00750   0.272538  
         B         B         0.43718   0.51884   0.02711   0.715130  
         O         O         0.50806   0.94964   0.04334   -0.570668           
         C         C         0.03671   0.27266   0.37385   -0.300855           
         H         H         0.05872   0.26794   0.38871   0.114021  
         H         H         0.04182   0.29440   0.35864   0.106026  
         H         H         0.50173   0.23140   0.68694   0.103062  
         C         C         0.64900   0.04540   0.00203   0.069319  
         C         C         0.59093   0.01009   0.01603   -0.251676           
         C         C         0.63827   0.01997   0.98094   -0.148008           
         C         C         0.60970   0.00250   0.98796   -0.050544           
         C         C         0.63032   0.05331   0.03007   -0.120930           
         C         C         0.60177   0.03598   0.03678   -0.054038           
         H         H         0.30956   0.44510   0.97248   0.066781  
         H         H         0.65263   0.01390   0.95916   0.105755  
         H         H         0.60172   0.98260   0.97173   0.108042  
         H         H         0.63907   0.07307   0.04607   0.112230  
         H         H         0.58749   0.04206   0.05856   0.108992  
         N         N         0.80846   0.91626   0.51843   -0.301809           
         C         C         0.81953   0.93768   0.49809   0.068858  
         C         C         0.77927   0.89693   0.50911   0.271667  
         B         B         0.93731   0.01546   0.52533   0.716745  
         O         O         0.00501   0.44834   0.54177   -0.566820           
         C         C         0.53818   0.77445   0.87594   -0.299197           
         H         H         0.55967   0.76929   0.89142   0.114358  
         H         H         0.54391   0.79644   0.86133   0.106429  
         H         H         0.00664   0.72761   0.18473   0.103104  
         C         C         0.15040   0.54089   0.50627   0.070463  
         C         C         0.09241   0.50510   0.51976   -0.250998           
         C         C         0.14053   0.51470   0.48567   -0.147190           
         C         C         0.11195   0.49710   0.49234   -0.051676           
         C         C         0.13092   0.54921   0.53362   -0.123378           
         C         C         0.10248   0.53159   0.54014   -0.051703           
         H         H         0.80777   0.94286   0.47417   0.064883  
         H         H         0.15551   0.50822   0.46446   0.104842  
         H         H         0.10456   0.47681   0.47631   0.108137  
         H         H         0.13893   0.56951   0.54931   0.112786  
         H         H         0.08759   0.53802   0.56140   0.107685  
         C         C         0.25071   0.66768   0.49929   -0.310253           
         C         C         0.25131   0.33160   0.00216   -0.314370           
         C         C         0.75138   0.16996   0.99711   -0.315693           
         C         C         0.74878   0.83103   0.49964   -0.309588           
         C         C         0.49688   0.25225   0.67045   -0.318767           
         C         C         0.99881   0.25017   0.33022   -0.310097           
         C         C         0.00160   0.74946   0.16965   -0.316356           
         C         C         0.50153   0.75282   0.83085   -0.305038           
         C         C         0.66873   0.49892   0.25012   -0.313289           
         C         C         0.33166   0.00108   0.25005   -0.311094           
         C         C         0.16614   0.99721   0.75102   -0.304813           
         C         C         0.83180   0.50135   0.75139   -0.305226           
         C         C         0.91918   0.50190   0.75057   -0.309703           
         C         C         0.58145   0.50112   0.24989   -0.304875           
         C         C         0.41903   0.00162   0.24985   -0.310946           
         C         C         0.07889   0.99726   0.74860   -0.316496           
         C         C         0.50060   0.75130   0.91882   -0.314035           
         C         C         0.49791   0.24944   0.58249   -0.306344           
         C         C         0.00069   0.24974   0.41822   -0.309572           
         C         C         0.00030   0.75052   0.08169   -0.310778           
         C         C         0.74935   0.91899   0.50177   -0.310378           
         C         C         0.24972   0.57971   0.50069   -0.319170           
         C         C         0.25235   0.41944   0.99897   -0.307864           
         C         C         0.74956   0.08193   0.99769   -0.306537 

