
##########################################################################
#               Crystallographic Information Format file
#               Produced by PyCifRW module
#
#  This is a CIF file.  CIF has been adopted by the International
#  Union of Crystallography as the standard for data archiving and
#  transmission.
#
#  For information on this file format, follow the CIF links at
#  http://www.iucr.org
##########################################################################

data_image0

_cell_length_a                          44.3284
_cell_length_b                          44.8612
_cell_length_c                          8.57821
_cell_angle_alpha                       49.4748
_cell_angle_beta                        84.0764
_cell_angle_gamma                       60.6195
_symmetry_space_group_name_H-M          'P 1'
_space_group_name_Hall                  'P 1'
loop_
  _atom_site_type_symbol
  _atom_site_label
  _atom_site_fract_x
  _atom_site_fract_y
  _atom_site_fract_z
  _atom_site_charge
         C         C         0.30322   0.90032   0.75705   0.108523  
         C         C         0.17981   0.10902   0.63005   0.113642  
         C         C         0.40298   0.77882   0.78659   0.119362  
         C         C         0.08850   0.23193   0.61231   0.118210  
         C         C         0.28727   0.79267   0.83419   0.137831  
         C         C         0.20936   0.20458   0.59995   0.123709  
         C         C         0.30853   0.40056   0.74574   0.114749  
         C         C         0.18452   0.60282   0.65931   0.109193  
         C         C         0.40443   0.27991   0.76339   0.124034  
         C         C         0.08912   0.72778   0.62246   0.119579  
         C         C         0.28411   0.30516   0.74611   0.134289  
         C         C         0.21166   0.69666   0.65965   0.122926  
         C         C         0.80361   0.40852   0.71876   0.115798  
         C         C         0.67629   0.61225   0.62002   0.112291  
         C         C         0.90182   0.28915   0.73638   0.125280  
         C         C         0.58253   0.73706   0.59088   0.117993  
         C         C         0.78330   0.30825   0.73890   0.133821  
         C         C         0.70429   0.70765   0.59900   0.125676  
         C         C         0.80897   0.90123   0.73549   0.116265  
         C         C         0.68498   0.10197   0.66083   0.109743  
         C         C         0.90434   0.78057   0.74897   0.120519  
         C         C         0.59076   0.22573   0.63509   0.128074  
         C         C         0.78544   0.80252   0.75698   0.130795  
         C         C         0.71228   0.19788   0.64252   0.123588  
         N         N         0.26934   0.92344   0.75964   -0.248747           
         N         N         0.21272   0.08376   0.63000   -0.233318           
         N         N         0.42478   0.79447   0.73497   -0.249840           
         N         N         0.06458   0.22000   0.64402   -0.229929           
         N         N         0.29614   0.75917   0.83670   -0.254258           
         N         N         0.20006   0.24011   0.58252   -0.237924           
         N         N         0.27492   0.42696   0.73589   -0.253275           
         N         N         0.21849   0.57665   0.67182   -0.229441           
         N         N         0.42749   0.29303   0.73689   -0.245679           
         N         N         0.06489   0.71708   0.63742   -0.225538           
         N         N         0.29314   0.27057   0.75653   -0.251237           
         N         N         0.20209   0.73208   0.64352   -0.236244           
         N         N         0.76996   0.43383   0.71303   -0.252706           
         N         N         0.71005   0.58666   0.62867   -0.229330           
         N         N         0.92488   0.30235   0.70970   -0.234598           
         N         N         0.55862   0.72539   0.61516   -0.223439           
         N         N         0.79265   0.27380   0.74728   -0.252157           
         N         N         0.69572   0.74333   0.57912   -0.242765           
         N         N         0.77562   0.92697   0.73092   -0.257318           
         N         N         0.71859   0.07683   0.66616   -0.232023           
         N         N         0.92825   0.79252   0.71867   -0.243453           
         N         N         0.56699   0.21361   0.66438   -0.228169           
         N         N         0.79526   0.76727   0.76985   -0.254255           
         N         N         0.70259   0.23348   0.62543   -0.232762           
         C         C         0.25387   0.96438   0.71840   0.214556  
         C         C         0.22525   0.04583   0.64989   0.203813  
         C         C         0.45812   0.77596   0.70321   0.332714  
         C         C         0.03039   0.24068   0.66280   0.201128  
         C         C         0.27119   0.75470   0.77999   0.323881  
         C         C         0.22342   0.24884   0.61908   0.146711  
         C         C         0.26237   0.46446   0.71987   0.323108  
         C         C         0.23279   0.53928   0.68516   0.152121  
         C         C         0.46171   0.27374   0.71620   0.206617  
         C         C         0.03043   0.73584   0.65823   0.150023  
         C         C         0.26856   0.26531   0.70326   0.319218  
         C         C         0.22559   0.73994   0.68651   0.148912  
         C         C         0.75643   0.47225   0.69107   0.327577  
         C         C         0.72513   0.54852   0.64686   0.150879  
         C         C         0.95948   0.28195   0.69438   0.210456  
         C         C         0.52484   0.74284   0.64472   0.149939  
         C         C         0.76857   0.26608   0.70877   0.323221  
         C         C         0.72096   0.74876   0.62535   0.205381  
         C         C         0.76302   0.96448   0.71478   0.321627  
         C         C         0.73307   0.03939   0.67986   0.153878  
         C         C         0.96234   0.77214   0.69753   0.324382  
         C         C         0.53250   0.23408   0.68153   0.204127  
         C         C         0.77092   0.76111   0.72109   0.198407  
         C         C         0.72514   0.24432   0.65162   0.145183  
         C         C         0.21579   0.99490   0.66639   -0.188979           
         C         C         0.26290   0.01647   0.69692   -0.133364           
         N         N         0.47498   0.79769   0.65437   -0.320031           
         C         C         0.01041   0.22036   0.71987   -0.150415           
         N         N         0.28547   0.71215   0.85032   -0.317909           
         C         C         0.20853   0.29324   0.54647   -0.127333           
         N         N         0.22696   0.48641   0.70364   -0.318465           
         C         C         0.26960   0.51646   0.69807   -0.117948           
         C         C         0.47950   0.29774   0.63096   -0.195958           
         C         C         0.01138   0.71517   0.70004   -0.122443           
         N         N         0.28336   0.22282   0.77166   -0.316075           
         C         C         0.21128   0.78440   0.61176   -0.128009           
         N         N         0.72096   0.49356   0.67551   -0.320819           
         C         C         0.76197   0.52645   0.65859   -0.113168           
         C         C         0.97969   0.30237   0.63368   -0.141414           
         C         C         0.50652   0.72098   0.69307   -0.120296           
         N         N         0.78477   0.22445   0.76613   -0.317019           
         C         C         0.70959   0.79299   0.54424   -0.152216           
         N         N         0.72765   0.98606   0.70033   -0.319369           
         C         C         0.76981   0.01698   0.69094   -0.116017           
         N         N         0.98007   0.79249   0.65654   -0.315803           
         C         C         0.51467   0.21055   0.75999   -0.150211           
         C         C         0.78207   0.71672   0.80072   -0.176589           
         C         C         0.70870   0.28790   0.59044   -0.131858           
         C         C         0.20196   0.03518   0.63044   -0.185499           
         C         C         0.27662   0.97695   0.73042   -0.166928           
         C         C         0.01459   0.28174   0.62234   -0.220048           
         C         C         0.47288   0.73748   0.72241   -0.215732           
         C         C         0.26122   0.21496   0.72999   0.005266  
         C         C         0.23422   0.79236   0.65638   -0.206268           
         C         C         0.21268   0.52268   0.68804   0.009943  
         C         C         0.28486   0.47842   0.71758   -0.214174           
         C         C         0.01317   0.77476   0.63732   0.002244  
         C         C         0.48034   0.22966   0.77920   -0.173931           
         C         C         0.26311   0.70507   0.80447   0.005789  
         C         C         0.23124   0.30203   0.58603   -0.210740           
         C         C         0.70587   0.53056   0.65508   0.010324  
         C         C         0.77805   0.48774   0.68257   -0.215626           
         C         C         0.50744   0.78148   0.62589   0.000788  
         C         C         0.97613   0.24014   0.73789   -0.164485           
         C         C         0.75745   0.71065   0.75450   -0.185387           
         C         C         0.73040   0.29937   0.61654   -0.207808           
         C         C         0.71320   0.02239   0.68445   0.008572  
         C         C         0.78527   0.97890   0.71052   -0.217738           
         C         C         0.51439   0.27805   0.61706   -0.178293           
         C         C         0.97705   0.73322   0.72011   -0.214908           
         C         C         0.76353   0.21400   0.73794   0.003781  
         C         C         0.73421   0.79904   0.58929   -0.160044           
         H         H         0.31927   0.91539   0.70934   0.096620  
         H         H         0.15958   0.10116   0.64108   0.109772  
         H         H         0.41170   0.74837   0.81093   0.101272  
         H         H         0.08204   0.26012   0.60133   0.105115  
         H         H         0.25892   0.81494   0.81188   0.101008  
         H         H         0.23759   0.18158   0.62353   0.099155  
         H         H         0.32859   0.40823   0.74070   0.101284  
         H         H         0.16417   0.59631   0.65413   0.106258  
         H         H         0.41224   0.25217   0.76802   0.101274  
         H         H         0.08205   0.75532   0.61791   0.103255  
         H         H         0.25553   0.32892   0.71440   0.094745  
         H         H         0.24021   0.67303   0.69053   0.098964  
         H         H         0.82286   0.41784   0.70572   0.099351  
         H         H         0.65616   0.60490   0.62153   0.106169  
         H         H         0.91016   0.26070   0.74550   0.099441  
         H         H         0.57582   0.76464   0.58532   0.103090  
         H         H         0.75491   0.33035   0.71697   0.093807  
         H         H         0.73263   0.68367   0.62879   0.101435  
         H         H         0.82879   0.90961   0.72506   0.099268  
         H         H         0.66495   0.09448   0.66248   0.104982  
         H         H         0.91158   0.75189   0.76191   0.102596  
         H         H         0.58350   0.25431   0.62291   0.111414  
         H         H         0.75699   0.82475   0.73354   0.093472  
         H         H         0.74061   0.17510   0.66647   0.099435  
         H         H         0.28145   0.02414   0.71415   0.133919  
         H         H         0.02223   0.18839   0.75213   0.134882  
         H         H         0.17945   0.32060   0.45697   0.135779  
         H         H         0.28599   0.52861   0.69411   0.136947  
         H         H         0.02366   0.68517   0.71577   0.131728  
         H         H         0.18251   0.81254   0.51546   0.137255  
         H         H         0.77774   0.53968   0.64996   0.137927  
         H         H         0.51877   0.69141   0.70566   0.132153  
         H         H         0.68143   0.82293   0.44107   0.134005  
         H         H         0.78595   0.02952   0.68562   0.133967  
         H         H         0.52827   0.17656   0.80879   0.132918  
         H         H         0.67905   0.31261   0.52019   0.137991  
         H         H         0.17259   0.05785   0.58822   0.136254  
         H         H         0.30606   0.95367   0.77730   0.132060  
         H         H         0.02859   0.29937   0.57376   0.121343  
         H         H         0.45849   0.72097   0.75743   0.135712  
         H         H         0.27398   0.17975   0.79243   0.108849  
         H         H         0.22420   0.82715   0.59131   0.145160  
         H         H         0.18395   0.53916   0.67650   0.105407  
         H         H         0.31348   0.46015   0.73124   0.139107  
         H         H         0.02636   0.79261   0.60290   0.103420  
         H         H         0.46793   0.20974   0.84686   0.131342  
         H         H         0.27545   0.66981   0.86846   0.109228  
         H         H         0.22066   0.33676   0.52302   0.141687  
         H         H         0.67710   0.54666   0.64332   0.105169  
         H         H         0.80668   0.47009   0.69494   0.140870  
         H         H         0.51996   0.80040   0.58524   0.104262  
         H         H         0.96207   0.22265   0.78653   0.131423  
         H         H         0.76645   0.67554   0.82830   0.138799  
         H         H         0.71806   0.33362   0.56301   0.140855  
         H         H         0.68447   0.03871   0.67324   0.105690  
         H         H         0.81387   0.96086   0.72323   0.142016  
         H         H         0.52591   0.29902   0.54355   0.148984  
         H         H         0.96224   0.71733   0.75229   0.136914  
         H         H         0.77779   0.17965   0.78928   0.107698  
         H         H         0.72551   0.83405   0.51562   0.137081  
         H         H         0.22978   0.09394   0.62751   0.272660  
         H         H         0.25588   0.90665   0.80250   0.281016  
         H         H         0.07481   0.19175   0.65558   0.275648  
         H         H         0.41433   0.82420   0.70968   0.290334  
         H         H         0.17175   0.25927   0.55826   0.272483  
         H         H         0.32394   0.73753   0.87037   0.293272  
         H         H         0.23494   0.58689   0.67685   0.268369  
         H         H         0.25733   0.41755   0.74078   0.290942  
         H         H         0.07601   0.68928   0.64446   0.269285  
         H         H         0.41590   0.32149   0.72583   0.273199  
         H         H         0.17364   0.75223   0.61097   0.273910  
         H         H         0.32123   0.24824   0.79690   0.291145  
         H         H         0.72613   0.59793   0.62799   0.267801  
         H         H         0.75324   0.42283   0.72529   0.291488  
         H         H         0.56942   0.69787   0.62033   0.268478  
         H         H         0.91406   0.33090   0.69606   0.280102  
         H         H         0.66749   0.76409   0.54823   0.277645  
         H         H         0.82050   0.25279   0.77854   0.292385  
         H         H         0.73480   0.08779   0.66685   0.269195  
         H         H         0.75823   0.91703   0.73988   0.291274  
         H         H         0.57795   0.18474   0.68004   0.273928  
         H         H         0.91888   0.82105   0.70179   0.288464  
         H         H         0.67430   0.25218   0.60204   0.270996  
         H         H         0.82355   0.74719   0.79911   0.277324  
         S         S         0.18226   0.98374   0.66714   1.169748  
         O         O         0.15704   -0.00039  0.76057   -0.522324           
         O         O         0.19993   0.93575   0.76375   -0.492150           
         O         O         0.15825   0.02090   0.42137   -0.517241           
         H         H         0.16356   0.00537   0.36374   0.382438  
         S         S         0.45698   0.35705   0.50820   1.170939  
         O         O         0.44017   0.36127   0.65598   -0.539001           
         O         O         0.42274   0.38526   0.31966   -0.503840           
         H         H         0.43036   0.37729   0.22819   0.387004  
         S         S         0.96349   0.35857   0.53986   0.694313  
         O         O         0.93738   0.36527   0.65994   -0.506133           
         O         O         0.93880   0.39335   0.29265   -0.507224           
         H         H         0.94020   0.37546   0.25303   0.365224  
         O         O         0.82501   0.64505   0.20467   -0.547540           
         O         O         0.48182   0.37188   0.43090   -0.495243           
         S         S         0.82674   0.66559   0.98624   1.164225  
         O         O         0.85309   0.67805   0.91670   -0.485616           
         O         O         0.83289   0.62877   0.98105   -0.499651           
         H         H         0.84207   0.63693   0.85026   0.367966  
         C         C         0.19615   0.15680   0.60896   0.357468  
         C         C         0.17025   0.14507   0.61814   -0.244351           
         C         C         0.29783   0.83838   0.85306   0.359193  
         C         C         0.31827   0.85959   0.79937   -0.237167           
         C         C         0.13339   0.16982   0.61890   0.350742  
         C         C         0.12221   0.20882   0.59820   -0.244006           
         C         C         0.35415   0.84076   0.77275   0.348859  
         C         C         0.36941   0.79887   0.80947   -0.246646           
         C         C         0.14641   0.22382   0.57445   0.355719  
         C         C         0.18370   0.19602   0.59004   -0.250889           
         C         C         0.34888   0.77802   0.85184   0.365754  
         C         C         0.31195   0.80135   0.85377   -0.241227           
         C         C         0.19959   0.64968   0.65587   0.358657  
         C         C         0.17389   0.63879   0.65078   -0.248587           
         C         C         0.29513   0.35081   0.76485   0.360063  
         C         C         0.31970   0.36389   0.75964   -0.244764           
         C         C         0.13597   0.66499   0.63640   0.350410  
         C         C         0.12382   0.70397   0.61819   -0.241954           
         C         C         0.35701   0.34044   0.75986   0.343761  
         C         C         0.37027   0.30123   0.77795   -0.236690           
         C         C         0.14815   0.71777   0.61008   0.354108  
         C         C         0.18620   0.68891   0.63829   -0.250609           
         C         C         0.34721   0.28512   0.79437   0.366354  
         C         C         0.30923   0.31250   0.77346   -0.245759           
         C         C         0.69153   0.66026   0.60421   0.355197  
         C         C         0.66584   0.64876   0.60780   -0.250233           
         C         C         0.79243   0.35605   0.74953   0.359651  
         C         C         0.81578   0.37125   0.73598   -0.244836           
         C         C         0.62832   0.67489   0.59789   0.352600  
         C         C         0.61662   0.71396   0.57874   -0.242585           
         C         C         0.85296   0.34963   0.72974   0.345318  
         C         C         0.86741   0.30995   0.74963   -0.235238           
         C         C         0.64093   0.72847   0.56118   0.356845  
         C         C         0.67858   0.69982   0.58359   -0.249874           
         C         C         0.84540   0.29223   0.76997   0.366764  
         C         C         0.80749   0.31771   0.75678   -0.243026           
         C         C         0.70004   0.14970   0.64931   0.354150  
         C         C         0.67447   0.13799   0.65195   -0.247211           
         C         C         0.79582   0.85039   0.76307   0.361687  
         C         C         0.82013   0.86457   0.74940   -0.246853           
         C         C         0.63711   0.16294   0.64780   0.351989  
         C         C         0.62510   0.20225   0.62684   -0.243216           
         C         C         0.85704   0.84251   0.73967   0.349666  
         C         C         0.87030   0.80274   0.76243   -0.243137           
         C         C         0.64928   0.21683   0.61132   0.355272  
         C         C         0.68696   0.18895   0.63113   -0.250187           
         C         C         0.84748   0.78594   0.78527   0.362001  
         C         C         0.80987   0.81185   0.77327   -0.239781           
         O         O         0.22880   0.13313   0.62020   -0.478895           
         O         O         0.26831   0.85271   0.89114   -0.438382           
         O         O         0.11192   0.15737   0.63726   -0.471854           
         O         O         0.37107   0.86053   0.71749   -0.471836           
         O         O         0.13515   0.25945   0.54756   -0.464630           
         O         O         0.36216   0.74273   0.87500   -0.458995           
         O         O         0.23293   0.62545   0.67678   -0.481614           
         O         O         0.26258   0.37206   0.76025   -0.470922           
         O         O         0.11441   0.65357   0.64110   -0.475165           
         O         O         0.37719   0.35434   0.74204   -0.453313           
         O         O         0.13636   0.75325   0.58506   -0.465226           
         O         O         0.35958   0.24998   0.81734   -0.457581           
         O         O         0.72458   0.63646   0.61992   -0.469010           
         O         O         0.76020   0.37554   0.75268   -0.471540           
         O         O         0.60650   0.66349   0.60670   -0.476130           
         O         O         0.87184   0.36545   0.70475   -0.455394           
         O         O         0.62982   0.76409   0.53358   -0.467907           
         O         O         0.85850   0.25725   0.79084   -0.458746           
         O         O         0.73309   0.12610   0.66445   -0.478875           
         O         O         0.76359   0.87101   0.76356   -0.472202           
         O         O         0.61588   0.15033   0.66359   -0.480573           
         O         O         0.87654   0.85801   0.70949   -0.472094           
         O         O         0.63773   0.25203   0.58806   -0.459997           
         O         O         0.85974   0.75113   0.80577   -0.441740           
         C         C         0.32021   0.88578   0.27662   0.109144  
         C         C         0.19384   0.09739   0.13402   0.111847  
         C         C         0.41452   0.76356   0.29349   0.116494  
         C         C         0.09946   0.22080   0.10763   0.121673  
         C         C         0.29713   0.78217   0.34995   0.146957  
         C         C         0.22068   0.19291   0.12176   0.125891  
         C         C         0.31572   0.39518   0.24631   0.113961  
         C         C         0.19144   0.59658   0.16333   0.113993  
         C         C         0.41198   0.27614   0.25617   0.126182  
         C         C         0.09556   0.72149   0.12398   0.121964  
         C         C         0.29285   0.29681   0.26276   0.136218  
         C         C         0.21840   0.68910   0.17434   0.124421  
         C         C         0.81651   0.39626   0.22683   0.111913  
         C         C         0.69054   0.59968   0.12771   0.115369  
         C         C         0.91289   0.27651   0.24109   0.117084  
         C         C         0.59374   0.72308   0.09506   0.120925  
         C         C         0.79366   0.29666   0.25597   0.134801  
         C         C         0.71487   0.69549   0.12456   0.129066  
         C         C         0.81685   0.89418   0.23491   0.114497  
         C         C         0.69306   0.09415   0.16341   0.112932  
         C         C         0.91136   0.77249   0.25286   0.124217  
         C         C         0.59865   0.21821   0.13290   0.122999  
         C         C         0.79243   0.79458   0.27039   0.132865  
         C         C         0.72044   0.18871   0.15669   0.124322  
         N         N         0.28698   0.90911   0.28345   -0.246578           
         N         N         0.22749   0.07140   0.14208   -0.237316           
         N         N         0.43726   0.77790   0.24419   -0.251327           
         N         N         0.07561   0.20880   0.13823   -0.220404           
         N         N         0.30526   0.74700   0.36742   -0.252893           
         N         N         0.21099   0.22789   0.10943   -0.233043           
         N         N         0.28232   0.42088   0.24095   -0.250010           
         N         N         0.22554   0.57044   0.17730   -0.232665           
         N         N         0.43498   0.28964   0.22570   -0.240308           
         N         N         0.07170   0.71042   0.13785   -0.228285           
         N         N         0.30209   0.26174   0.27623   -0.255394           
         N         N         0.20906   0.72369   0.16397   -0.233123           
         N         N         0.78302   0.42212   0.22026   -0.254508           
         N         N         0.72455   0.57433   0.13825   -0.229241           
         N         N         0.93647   0.28892   0.21711   -0.231676           
         N         N         0.57082   0.71002   0.12043   -0.230486           
         N         N         0.80253   0.26159   0.27023   -0.251769           
         N         N         0.70529   0.73052   0.11196   -0.237923           
         N         N         0.78380   0.91934   0.23478   -0.253953           
         N         N         0.72692   0.06854   0.17330   -0.230683           
         N         N         0.93519   0.78463   0.22084   -0.251257           
         N         N         0.57416   0.20758   0.15297   -0.224174           
         N         N         0.80265   0.75827   0.29127   -0.248102           
         N         N         0.71087   0.22348   0.14551   -0.228845           
         C         C         0.27215   0.94908   0.24937   0.202575  
         C         C         0.24127   0.03221   0.16991   0.213404  
         C         C         0.47057   0.75911   0.21319   0.322045  
         C         C         0.04145   0.22908   0.15932   0.205546  
         C         C         0.27958   0.74279   0.31533   0.322614  
         C         C         0.23382   0.23682   0.14989   0.148252  
         C         C         0.26981   0.45814   0.22669   0.318022  
         C         C         0.24007   0.53295   0.19171   0.157281  
         C         C         0.46915   0.27058   0.20336   0.210958  
         C         C         0.03726   0.72875   0.15905   0.151189  
         C         C         0.27778   0.25512   0.23080   0.323059  
         C         C         0.23293   0.73010   0.21520   0.149196  
         C         C         0.77017   0.46000   0.20153   0.319769  
         C         C         0.73960   0.53599   0.15820   0.154627  
         C         C         0.97089   0.26923   0.19817   0.200716  
         C         C         0.53711   0.72672   0.15175   0.152806  
         C         C         0.77803   0.25389   0.23619   0.322505  
         C         C         0.72967   0.73614   0.16518   0.203539  
         C         C         0.77132   0.95649   0.22096   0.318606  
         C         C         0.74146   0.03112   0.18730   0.157247  
         C         C         0.96927   0.76440   0.19979   0.321790  
         C         C         0.53973   0.22891   0.16806   0.209970  
         C         C         0.77879   0.75014   0.25534   0.205142  
         C         C         0.73372   0.23343   0.17681   0.143610  
         C         C         0.23462   0.97585   0.22162   -0.177859           
         C         C         0.27859   0.00545   0.20143   -0.150376           
         N         N         0.48742   0.78087   0.16531   -0.318358           
         C         C         0.02109   0.20953   0.20926   -0.151246           
         N         N         0.29324   0.70064   0.38295   -0.315541           
         C         C         0.21809   0.28100   0.08156   -0.130635           
         N         N         0.23450   0.47964   0.21300   -0.316665           
         C         C         0.27690   0.51023   0.20481   -0.119786           
         C         C         0.48959   0.29098   0.14040   -0.187671           
         C         C         0.01848   0.70777   0.20105   -0.123007           
         N         N         0.29329   0.21274   0.29685   -0.314222           
         C         C         0.21911   0.77385   0.14698   -0.127533           
         N         N         0.73492   0.48101   0.19009   -0.317368           
         C         C         0.77637   0.51370   0.16973   -0.122807           
         C         C         0.99174   0.28859   0.14814   -0.139381           
         C         C         0.51913   0.70442   0.20178   -0.122303           
         N         N         0.79371   0.21198   0.29711   -0.314127           
         C         C         0.71788   0.78095   0.07859   -0.146599           
         N         N         0.73609   0.97759   0.20967   -0.315433           
         C         C         0.77820   0.00877   0.19831   -0.121956           
         N         N         0.98684   0.78494   0.15926   -0.315533           
         C         C         0.51964   0.20863   0.22801   -0.144747           
         C         C         0.79012   0.70490   0.34577   -0.195301           
         C         C         0.71778   0.27706   0.11442   -0.130048           
         C         C         0.21947   0.01730   0.17630   -0.199046           
         C         C         0.29348   0.96515   0.23873   -0.164969           
         C         C         0.02634   0.26852   0.13163   -0.210322           
         C         C         0.48555   0.72055   0.23287   -0.216995           
         C         C         0.27176   0.20395   0.25728   0.005692  
         C         C         0.24255   0.78069   0.19573   -0.206749           
         C         C         0.22017   0.51583   0.19781   0.006495  
         C         C         0.29227   0.47208   0.22495   -0.212230           
         C         C         0.01986   0.76757   0.13880   0.004583  
         C         C         0.48557   0.22880   0.24638   -0.169671           
         C         C         0.27031   0.69454   0.33440   0.005137  
         C         C         0.24010   0.29068   0.12013   -0.209887           
         C         C         0.72021   0.51777   0.17092   0.005213  
         C         C         0.79216   0.47498   0.19399   -0.205943           
         C         C         0.51973   0.76505   0.13518   0.003705  
         C         C         0.98694   0.22896   0.22921   -0.167150           
         C         C         0.76568   0.69806   0.30338   -0.174775           
         C         C         0.73995   0.28783   0.14226   -0.211261           
         C         C         0.72172   0.01369   0.19521   0.004658  
         C         C         0.79365   0.97070   0.21791   -0.212239           
         C         C         0.52414   0.27023   0.12448   -0.187178           
         C         C         0.98416   0.72557   0.22155   -0.214626           
         C         C         0.77201   0.20213   0.26838   0.003612  
         C         C         0.74198   0.78770   0.12248   -0.166812           
         H         H         0.33870   0.89682   0.25073   0.102401  
         H         H         0.17395   0.08909   0.14455   0.103975  
         H         H         0.42189   0.73395   0.31383   0.101863  
         H         H         0.09231   0.24968   0.09274   0.104668  
         H         H         0.26895   0.80564   0.32429   0.096376  
         H         H         0.24922   0.16968   0.15027   0.100868  
         H         H         0.33584   0.40271   0.24252   0.103672  
         H         H         0.17132   0.58952   0.16102   0.103059  
         H         H         0.41966   0.24822   0.26243   0.097816  
         H         H         0.08810   0.74928   0.11829   0.103638  
         H         H         0.26438   0.31969   0.23666   0.094567  
         H         H         0.24700   0.66523   0.20704   0.099253  
         H         H         0.83663   0.40380   0.22297   0.105271  
         H         H         0.67119   0.59092   0.13443   0.103812  
         H         H         0.92036   0.24913   0.24372   0.098450  
         H         H         0.58570   0.75152   0.08550   0.103452  
         H         H         0.76547   0.31911   0.23510   0.096032  
         H         H         0.74365   0.67166   0.15922   0.105287  
         H         H         0.83688   0.90219   0.22573   0.101747  
         H         H         0.67303   0.08664   0.16522   0.106158  
         H         H         0.91845   0.74370   0.26706   0.102128  
         H         H         0.59177   0.24626   0.12411   0.109030  
         H         H         0.76399   0.81677   0.24746   0.094122  
         H         H         0.74881   0.16600   0.18075   0.099818  
         H         H         0.29614   0.01605   0.20002   0.138056  
         H         H         0.03228   0.17873   0.23254   0.132528  
         H         H         0.18884   0.30759   0.99537   0.135535  
         H         H         0.29320   0.52247   0.20087   0.136334  
         H         H         0.03094   0.67785   0.21607   0.131170  
         H         H         0.19034   0.80235   0.05254   0.137000  
         H         H         0.79231   0.52675   0.16113   0.141797  
         H         H         0.53157   0.67476   0.21493   0.131626  
         H         H         0.68988   0.81076   0.97105   0.133581  
         H         H         0.79436   0.02123   0.19376   0.136059  
         H         H         0.53115   0.17648   0.26230   0.130353  
         H         H         0.68820   0.30238   0.04158   0.136832  
         H         H         0.19046   0.03761   0.14858   0.126565  
         H         H         0.32269   0.94462   0.26886   0.138001  
         H         H         0.04109   0.28483   0.09376   0.124011  
         H         H         0.47145   0.70354   0.27092   0.137038  
         H         H         0.28533   0.16901   0.31553   0.107436  
         H         H         0.23290   0.81509   0.13378   0.147499  
         H         H         0.19161   0.53179   0.19011   0.105430  
         H         H         0.32099   0.45363   0.24052   0.142096  
         H         H         0.03291   0.78558   0.10420   0.102267  
         H         H         0.47134   0.21141   0.29777   0.128436  
         H         H         0.28209   0.65960   0.39591   0.108121  
         H         H         0.22870   0.32543   0.05922   0.141315  
         H         H         0.69175   0.53319   0.16563   0.105071  
         H         H         0.82088   0.45684   0.20884   0.143848  
         H         H         0.53219   0.78393   0.09616   0.104551  
         H         H         0.97236   0.21238   0.27005   0.128626  
         H         H         0.77502   0.66245   0.38373   0.146015  
         H         H         0.72816   0.32216   0.08687   0.141871  
         H         H         0.69326   0.02927   0.18975   0.105646  
         H         H         0.82238   0.95226   0.23356   0.140828  
         H         H         0.53826   0.28774   0.07355   0.141013  
         H         H         0.96943   0.70961   0.25315   0.135662  
         H         H         0.78578   0.16752   0.32289   0.106063  
         H         H         0.73308   0.82314   0.04370   0.137081  
         H         H         0.24391   0.08261   0.13536   0.277049  
         H         H         0.27249   0.89424   0.30534   0.269184  
         H         H         0.08632   0.17976   0.15583   0.274999  
         H         H         0.42787   0.80655   0.22671   0.287516  
         H         H         0.18250   0.24769   0.07762   0.270687  
         H         H         0.33290   0.72499   0.39955   0.293872  
         H         H         0.24162   0.58152   0.17801   0.271451  
         H         H         0.26465   0.41182   0.24282   0.287384  
         H         H         0.08357   0.68195   0.14858   0.269113  
         H         H         0.42406   0.31799   0.21316   0.276440  
         H         H         0.18055   0.74449   0.12737   0.272914  
         H         H         0.32998   0.24040   0.30926   0.292845  
         H         H         0.74012   0.58659   0.13121   0.272208  
         H         H         0.76550   0.41269   0.22394   0.288873  
         H         H         0.58299   0.68136   0.13261   0.271080  
         H         H         0.92673   0.31610   0.21225   0.281367  
         H         H         0.67683   0.75160   0.07330   0.275217  
         H         H         0.83018   0.24084   0.29701   0.292719  
         H         H         0.74289   0.08001   0.17113   0.269838  
         H         H         0.76626   0.90977   0.24049   0.286520  
         H         H         0.58479   0.17881   0.16833   0.273008  
         H         H         0.92581   0.81303   0.20530   0.288545  
         H         H         0.68246   0.24277   0.11790   0.271144  
         H         H         0.83111   0.73858   0.32214   0.280579  
         S         S         0.20580   0.95535   0.27408   1.171334  
         O         O         0.16888   0.99277   0.22190   -0.542646           
         O         O         0.22380   0.90825   0.48828   -0.486567           
         O         O         0.20461   0.95034   0.11079   -0.531711           
         H         H         0.18143   0.97525   0.97915   0.384273  
         S         S         0.47480   0.34550   0.05715   1.179254  
         O         O         0.44032   0.36150   0.10273   -0.550104           
         O         O         0.46665   0.38045   0.80497   -0.510440           
         H         H         0.45376   0.37559   0.73746   0.381572  
         S         S         0.97877   0.34022   0.09576   0.693628  
         O         O         0.94667   0.34970   0.17831   -0.519530           
         O         O         0.96437   0.37988   0.83447   -0.511195           
         H         H         0.95028   0.37593   0.76642   0.358499  
         O         O         0.83311   0.61228   0.64856   -0.496913           
         O         O         0.50462   0.34086   0.14504   -0.502454           
         S         S         0.83495   0.65314   0.52500   1.166122  
         O         O         0.85015   0.65866   0.64255   -0.521929           
         O         O         0.85922   0.65511   0.37470   -0.484475           
         H         H         0.85031   0.64924   0.29820   0.370069  
         C         C         0.20834   0.14659   0.11227   0.354874  
         C         C         0.18305   0.13430   0.11803   -0.247626           
         C         C         0.30841   0.83165   0.33171   0.360721  
         C         C         0.33202   0.84782   0.29996   -0.239321           
         C         C         0.14621   0.15772   0.12341   0.346474  
         C         C         0.13372   0.19765   0.09777   -0.251472           
         C         C         0.36859   0.82546   0.28752   0.354111  
         C         C         0.38143   0.78484   0.31724   -0.244387           
         C         C         0.15743   0.21304   0.07841   0.360542  
         C         C         0.19525   0.18511   0.10009   -0.251637           
         C         C         0.35926   0.76579   0.36188   0.362509  
         C         C         0.32230   0.79145   0.35693   -0.245875           
         C         C         0.20607   0.64403   0.15655   0.354142  
         C         C         0.18054   0.63294   0.15207   -0.248980           
         C         C         0.30258   0.34537   0.26375   0.361557  
         C         C         0.32686   0.35897   0.25697   -0.247909           
         C         C         0.14287   0.65840   0.14171   0.347663  
         C         C         0.13045   0.69763   0.12177   -0.246200           
         C         C         0.36437   0.33568   0.25841   0.349607  
         C         C         0.37795   0.29674   0.27407   -0.236356           
         C         C         0.15468   0.71135   0.11580   0.360276  
         C         C         0.19277   0.68240   0.14514   -0.253601           
         C         C         0.35528   0.27976   0.29440   0.364053  
         C         C         0.31739   0.30601   0.27914   -0.246173           
         C         C         0.70347   0.64981   0.10685   0.355646  
         C         C         0.67884   0.63693   0.11120   -0.254850           
         C         C         0.80335   0.34618   0.24761   0.361379  
         C         C         0.82765   0.35980   0.23949   -0.245291           
         C         C         0.64153   0.66073   0.10919   0.346880  
         C         C         0.62830   0.70065   0.08552   -0.247557           
         C         C         0.86548   0.33556   0.24681   0.351525  
         C         C         0.87875   0.29730   0.25740   -0.231365           
         C         C         0.65158   0.71629   0.07017   0.363216  
         C         C         0.68968   0.68823   0.09614   -0.253518           
         C         C         0.85585   0.28070   0.27618   0.365255  
         C         C         0.81816   0.30656   0.26489   -0.246076           
         C         C         0.70796   0.14208   0.15103   0.355252  
         C         C         0.68241   0.13050   0.15197   -0.253153           
         C         C         0.80286   0.84415   0.26086   0.363257  
         C         C         0.82747   0.85796   0.24659   -0.245760           
         C         C         0.64519   0.15503   0.14922   0.349329  
         C         C         0.63311   0.19437   0.12794   -0.240827           
         C         C         0.86463   0.83467   0.24293   0.354518  
         C         C         0.87739   0.79497   0.26583   -0.242313           
         C         C         0.65727   0.20871   0.11575   0.357336  
         C         C         0.69502   0.18056   0.13849   -0.251144           
         C         C         0.85437   0.77829   0.29100   0.361782  
         C         C         0.81685   0.80469   0.27841   -0.240599           
         O         O         0.24109   0.12394   0.12126   -0.482065           
         O         O         0.27633   0.85267   0.33404   -0.453641           
         O         O         0.12592   0.14305   0.15342   -0.473241           
         O         O         0.38813   0.84115   0.25230   -0.465681           
         O         O         0.14552   0.24863   0.05282   -0.467584           
         O         O         0.37149   0.72956   0.39429   -0.457696           
         O         O         0.23928   0.62060   0.17252   -0.481960           
         O         O         0.26979   0.36714   0.25469   -0.471354           
         O         O         0.12173   0.64596   0.15250   -0.475733           
         O         O         0.38440   0.34940   0.24462   -0.459063           
         O         O         0.14292   0.74660   0.09263   -0.468464           
         O         O         0.36801   0.24463   0.31688   -0.459880           
         O         O         0.73640   0.62792   0.11522   -0.474462           
         O         O         0.77061   0.36797   0.23891   -0.469932           
         O         O         0.62139   0.64633   0.13052   -0.478521           
         O         O         0.88599   0.34781   0.24324   -0.450966           
         O         O         0.63929   0.75196   0.04403   -0.470120           
         O         O         0.86822   0.24586   0.29673   -0.460881           
         O         O         0.74094   0.11897   0.16350   -0.480430           
         O         O         0.77042   0.86582   0.25636   -0.469425           
         O         O         0.62413   0.14201   0.16785   -0.483053           
         O         O         0.88486   0.84881   0.22024   -0.468135           
         O         O         0.64556   0.24395   0.09254   -0.463465           
         O         O         0.86656   0.74298   0.31514   -0.442040 

