
##########################################################################
#               Crystallographic Information Format file
#               Produced by PyCifRW module
#
#  This is a CIF file.  CIF has been adopted by the International
#  Union of Crystallography as the standard for data archiving and
#  transmission.
#
#  For information on this file format, follow the CIF links at
#  http://www.iucr.org
##########################################################################

data_image0

_cell_length_a                          51.715
_cell_length_b                          55.2782
_cell_length_c                          8.03601
_cell_angle_alpha                       89.6563
_cell_angle_beta                        91.9006
_cell_angle_gamma                       90.0425
_symmetry_space_group_name_H-M          'P 1'
_space_group_name_Hall                  'P 1'
loop_
  _atom_site_type_symbol
  _atom_site_label
  _atom_site_fract_x
  _atom_site_fract_y
  _atom_site_fract_z
  _atom_site_charge
         C         C         0.52923   0.52282   0.06752   0.037615  
         C         C         0.48788   0.54406   0.05055   -0.134829           
         C         C         0.44693   0.52195   0.10697   0.025120  
         C         C         0.43075   0.54392   0.10981   0.063901  
         C         C         0.40664   0.54381   0.02318   -0.126548           
         C         C         0.39054   0.56389   0.02211   -0.147342           
         C         C         0.39773   0.58507   0.10844   0.197351  
         C         C         0.42187   0.58534   0.19555   -0.167712           
         C         C         0.43791   0.56514   0.19654   -0.122380           
         H         H         0.47699   0.56064   0.02934   0.103143  
         H         H         0.40105   0.52799   0.95067   0.107807  
         H         H         0.37224   0.56390   0.95148   0.119902  
         H         H         0.42790   0.60126   0.26570   0.108552  
         H         H         0.45595   0.56532   0.27007   0.103114  
         C         C         0.02922   0.02265   0.95093   0.034766  
         C         C         0.98834   0.04388   0.98278   -0.133029           
         C         C         0.94635   0.02197   0.93974   0.027654  
         C         C         0.93015   0.04395   0.93856   0.062058  
         C         C         0.93650   0.06547   0.85382   -0.124551           
         C         C         0.92044   0.08564   0.85502   -0.168086           
         C         C         0.89710   0.08511   0.94107   0.199047  
         C         C         0.89064   0.06361   0.02474   -0.146051           
         C         C         0.90670   0.04353   0.02282   -0.126892           
         H         H         0.97802   0.06043   0.00984   0.104341  
         H         H         0.95385   0.06598   0.78112   0.103894  
         H         H         0.92586   0.10170   0.78548   0.108613  
         H         H         0.87301   0.06341   0.09486   0.120137  
         H         H         0.90167   0.02748   0.09373   0.106573  
         C         C         0.13946   0.85643   0.87489   0.057936  
         C         C         0.13394   0.83348   0.80704   -0.128114           
         C         C         0.15149   0.81455   0.82581   -0.132986           
         C         C         0.17550   0.81821   0.91120   0.130679  
         C         C         0.18129   0.84148   0.97623   -0.119966           
         C         C         0.16351   0.86009   0.95922   -0.104069           
         C         C         0.19362   0.79937   0.93366   -0.080233           
         C         C         0.21006   0.78367   0.95694   -0.078513           
         C         C         0.22966   0.76644   0.98375   0.075589  
         C         C         0.25283   0.77244   0.07846   0.105259  
         C         C         0.27323   0.75482   0.10555   0.112106  
         C         C         0.27068   0.73078   0.04065   0.076023  
         C         C         0.24794   0.72575   0.94721   -0.131230           
         C         C         0.22820   0.74291   0.91967   -0.132822           
         C         C         0.28992   0.71330   0.07056   -0.075488           
         C         C         0.30651   0.69781   0.09612   -0.088469           
         C         C         0.32525   0.67956   0.12039   0.127369  
         C         C         0.34887   0.68414   0.20820   -0.127989           
         C         C         0.36712   0.66586   0.23066   -0.127062           
         C         C         0.36265   0.64265   0.16406   0.055194  
         C         C         0.33908   0.63813   0.07626   -0.105693           
         C         C         0.32066   0.65610   0.05526   -0.124209           
         N         N         0.29376   0.76343   0.19493   -0.341049           
         S         S         0.28678   0.79145   0.23763   0.436849  
         N         N         0.25811   0.79411   0.14834   -0.351165           
         H         H         0.11564   0.83065   0.73866   0.106074  
         H         H         0.14716   0.79688   0.77295   0.116823  
         H         H         0.19984   0.84429   0.04100   0.125213  
         H         H         0.16757   0.87789   0.01104   0.115897  
         H         H         0.24580   0.70784   0.89301   0.123363  
         H         H         0.21116   0.73804   0.84417   0.122527  
         H         H         0.35230   0.70204   0.25987   0.126406  
         H         H         0.38507   0.66950   0.30092   0.107712  
         H         H         0.33601   0.62015   0.02509   0.114380  
         H         H         0.30257   0.65260   0.98682   0.115898  
         C         C         0.12049   0.87586   0.85844   0.061515  
         N         N         0.12329   0.89543   0.94496   -0.300582           
         N         N         0.37994   0.60410   0.09644   -0.303796           
         C         C         0.38197   0.62358   0.18472   0.066579  
         H         H         0.89476   0.12626   0.76687   0.066386  
         H         H         0.60879   0.37418   0.26267   0.066495  
         C         C         0.47435   0.47734   0.08250   0.036616  
         C         C         0.51498   0.45615   0.04213   -0.134610           
         C         C         0.55723   0.47823   0.07677   0.024898  
         C         C         0.57347   0.45625   0.07826   0.060398  
         C         C         0.59695   0.45636   0.99398   -0.125692           
         C         C         0.61302   0.43622   0.99550   -0.148467           
         C         C         0.60628   0.41483   0.08008   0.198818  
         C         C         0.58269   0.41450   0.16315   -0.167328           
         C         C         0.56692   0.43486   0.16383   -0.121754           
         H         H         0.52510   0.43950   0.01515   0.104050  
         H         H         0.60201   0.47218   0.92059   0.105397  
         H         H         0.63086   0.43623   0.92746   0.118875  
         H         H         0.57680   0.39837   0.23029   0.109915  
         H         H         0.54958   0.43457   0.23665   0.104517  
         C         C         0.97406   0.97725   0.95021   0.036534  
         C         C         0.01530   0.95587   0.97374   -0.134831           
         C         C         0.05694   0.97811   0.93798   0.024349  
         C         C         0.07303   0.95605   0.93685   0.064758  
         C         C         0.06625   0.93547   0.84195   -0.122001           
         C         C         0.08206   0.91513   0.84113   -0.167130           
         C         C         0.10558   0.91457   0.93515   0.194777  
         C         C         0.11242   0.93512   0.02965   -0.143973           
         C         C         0.09657   0.95539   0.03015   -0.130983           
         H         H         0.02591   0.93909   0.99304   0.102682  
         H         H         0.04881   0.93595   0.76247   0.103679  
         H         H         0.07638   0.89993   0.76265   0.108655  
         H         H         0.13029   0.93438   0.10479   0.119459  
         H         H         0.10194   0.97073   0.10817   0.108887  
         C         C         0.86195   0.14306   0.88450   0.057106  
         C         C         0.86608   0.16599   0.81239   -0.132546           
         C         C         0.84855   0.18470   0.83231   -0.132427           
         C         C         0.82591   0.18080   0.92242   0.127861  
         C         C         0.82163   0.15765   0.99357   -0.115481           
         C         C         0.83945   0.13929   0.97594   -0.109025           
         C         C         0.80762   0.19928   0.94394   -0.080841           
         C         C         0.79101   0.21459   0.96604   -0.078385           
         C         C         0.77147   0.23161   0.99127   0.075982  
         C         C         0.74874   0.22515   0.07970   0.105440  
         C         C         0.72852   0.24269   0.10526   0.110237  
         C         C         0.73070   0.26699   0.04363   0.074896  
         C         C         0.75303   0.27245   0.95635   -0.130032           
         C         C         0.77260   0.25542   0.93055   -0.132498           
         C         C         0.71155   0.28441   0.06980   -0.076821           
         C         C         0.69529   0.30010   0.09089   -0.087391           
         C         C         0.67711   0.31879   0.10976   0.127470  
         C         C         0.65457   0.31531   0.20173   -0.126579           
         C         C         0.63719   0.33421   0.22020   -0.128383           
         C         C         0.64130   0.35689   0.14465   0.053232  
         C         C         0.66365   0.36025   0.05119   -0.107583           
         C         C         0.68130   0.34170   0.03462   -0.128675           
         N         N         0.70832   0.23367   0.18795   -0.344688           
         S         S         0.71540   0.20539   0.22663   0.437884  
         N         N         0.74367   0.20310   0.14398   -0.348906           
         H         H         0.88323   0.16908   0.74016   0.107441  
         H         H         0.85181   0.20236   0.77652   0.118045  
         H         H         0.80425   0.15484   0.06378   0.122543  
         H         H         0.83662   0.12162   0.03266   0.116226  
         H         H         0.75503   0.29062   0.90562   0.121851  
         H         H         0.78918   0.26067   0.85874   0.121602  
         H         H         0.65134   0.29781   0.26004   0.124807  
         H         H         0.62023   0.33154   0.29492   0.107047  
         H         H         0.66654   0.37775   0.99212   0.115605  
         H         H         0.69839   0.34425   0.96125   0.115214  
         C         C         0.88053   0.12356   0.86400   0.065869  
         N         N         0.87959   0.10423   0.95553   -0.301000           
         N         N         0.62368   0.39555   0.06892   -0.301319           
         C         C         0.62280   0.37654   0.16370   0.067655  
         H         H         0.10411   0.87266   0.77052   0.066989  
         H         H         0.39765   0.62689   0.27745   0.067654  
         C         C         0.52967   0.47781   0.06672   0.035725  
         C         C         0.48861   0.45589   0.04997   -0.135502           
         C         C         0.44721   0.47735   0.10557   0.024162  
         C         C         0.43117   0.45526   0.10899   0.067304  
         C         C         0.40698   0.45534   0.02331   -0.128902           
         C         C         0.39077   0.43533   0.02613   -0.143879           
         C         C         0.39805   0.41414   0.11368   0.198099  
         C         C         0.42221   0.41398   0.20082   -0.169166           
         C         C         0.43833   0.43413   0.19818   -0.122885           
         H         H         0.47815   0.43904   0.02992   0.105126  
         H         H         0.40140   0.47114   0.94933   0.106285  
         H         H         0.37224   0.43537   0.95797   0.118957  
         H         H         0.42811   0.39830   0.27504   0.109064  
         H         H         0.45644   0.43401   0.27091   0.102500  
         C         C         0.02954   0.97768   0.94982   0.033596  
         C         C         0.98887   0.95567   0.97456   -0.132251           
         C         C         0.94652   0.97730   0.93621   0.023633  
         C         C         0.93035   0.95524   0.93123   0.065769  
         C         C         0.93677   0.93418   0.84305   -0.124355           
         C         C         0.92071   0.91398   0.83935   -0.168539           
         C         C         0.89708   0.91402   0.92254   0.198758  
         C         C         0.89045   0.93513   0.00857   -0.142943           
         C         C         0.90668   0.95514   0.01326   -0.129535           
         H         H         0.97879   0.93877   -0.00351  0.104841  
         H         H         0.95414   0.93410   0.77043   0.101584  
         H         H         0.92626   0.89841   0.76647   0.108222  
         H         H         0.87248   0.93499   0.07507   0.119715  
         H         H         0.90148   0.97074   0.08689   0.107345  
         C         C         0.13700   0.14599   0.86941   0.055784  
         C         C         0.13187   0.16860   0.79368   -0.130086           
         C         C         0.14900   0.18781   0.81456   -0.133421           
         C         C         0.17225   0.18474   0.90955   0.128391  
         C         C         0.17759   0.16186   0.98393   -0.116818           
         C         C         0.16018   0.14299   0.96490   -0.104712           
         C         C         0.19041   0.20354   0.93172   -0.080846           
         C         C         0.20744   0.21863   0.95609   -0.079975           
         C         C         0.22772   0.23508   0.98427   0.078571  
         C         C         0.25063   0.22807   0.07865   0.103497  
         C         C         0.27178   0.24491   0.10549   0.113748  
         C         C         0.27038   0.26905   0.03921   0.073304  
         C         C         0.24777   0.27508   0.94711   -0.130423           
         C         C         0.22724   0.25876   0.92079   -0.134254           
         C         C         0.29049   0.28576   0.06653   -0.072067           
         C         C         0.30768   0.30068   0.09125   -0.091235           
         C         C         0.32675   0.31865   0.11526   0.131324  
         C         C         0.35096   0.31356   0.19465   -0.126326           
         C         C         0.36939   0.33173   0.21454   -0.127780           
         C         C         0.36445   0.35539   0.15563   0.052991  
         C         C         0.34028   0.36042   0.07657   -0.101176           
         C         C         0.32180   0.34252   0.05671   -0.128125           
         N         N         0.29193   0.23547   0.19505   -0.343558           
         S         S         0.28375   0.20766   0.23786   0.438177  
         N         N         0.25502   0.20613   0.14847   -0.347891           
         H         H         0.11430   0.17095   0.71689   0.104925  
         H         H         0.14496   0.20519   0.75555   0.116524  
         H         H         0.19548   0.15963   0.05732   0.124005  
         H         H         0.16398   0.12546   0.02273   0.115336  
         H         H         0.24635   0.29308   0.89253   0.122716  
         H         H         0.21037   0.26447   0.84637   0.121620  
         H         H         0.35485   0.29534   0.24038   0.126045  
         H         H         0.38793   0.32772   0.27673   0.106475  
         H         H         0.33684   0.37868   0.03007   0.113561  
         H         H         0.30334   0.34643   0.99370   0.117153  
         C         C         0.11862   0.12612   0.84886   0.062869  
         N         N         0.12074   0.10704   0.94252   -0.299617           
         N         N         0.38008   0.39524   0.10389   -0.301634           
         C         C         0.38398   0.37429   0.17321   0.062614  
         H         H         0.89862   0.87063   0.77727   0.064330  
         H         H         0.60544   0.62804   0.26124   0.069063  
         C         C         0.47405   0.52231   0.08376   0.036001  
         C         C         0.51423   0.54430   0.04242   -0.134757           
         C         C         0.55676   0.52293   0.07813   0.021884  
         C         C         0.57250   0.54521   0.08088   0.061888  
         C         C         0.59621   0.54561   -0.00081  -0.125328           
         C         C         0.61179   0.56606   0.00050   -0.147460           
         C         C         0.60448   0.58720   0.08382   0.196710  
         C         C         0.58075   0.58701   0.16544   -0.168656           
         C         C         0.56535   0.56638   0.16527   -0.121658           
         H         H         0.52404   0.56112   0.01390   0.103878  
         H         H         0.60189   0.52988   0.92831   0.105946  
         H         H         0.62973   0.56645   0.93363   0.119658  
         H         H         0.57455   0.60288   0.23288   0.109424  
         H         H         0.54789   0.56632   0.23704   0.105186  
         C         C         0.97385   0.02224   0.95397   0.034134  
         C         C         0.01475   0.04411   0.97993   -0.136941           
         C         C         0.05657   0.02275   0.93606   0.023817  
         C         C         0.07220   0.04512   0.93189   0.062338  
         C         C         0.06449   0.06601   0.84137   -0.120996           
         C         C         0.07972   0.08677   0.84089   -0.169779           
         C         C         0.10370   0.08742   0.92979   0.196999  
         C         C         0.11157   0.06652   0.01854   -0.144398           
         C         C         0.09627   0.04588   0.01906   -0.129141           
         H         H         0.02513   0.06090   0.00302   0.103897  
         H         H         0.04664   0.06558   0.76599   0.103570  
         H         H         0.07313   0.10235   0.76795   0.108922  
         H         H         0.12983   0.06725   0.08926   0.119122  
         H         H         0.10247   0.03032   0.09357   0.109889  
         C         C         0.86278   0.85564   0.86745   0.054741  
         C         C         0.86750   0.83253   0.80183   -0.130138           
         C         C         0.84963   0.81392   0.81677   -0.130290           
         C         C         0.82619   0.81802   0.89749   0.128054  
         C         C         0.82125   0.84139   0.96133   -0.117644           
         C         C         0.83925   0.85972   0.94681   -0.103113           
         C         C         0.80783   0.79951   0.91800   -0.080285           
         C         C         0.79120   0.78418   0.94077   -0.076853           
         C         C         0.77133   0.76760   0.96985   0.073639  
         C         C         0.74894   0.77493   0.05810   0.106967  
         C         C         0.72830   0.75801   0.08950   0.111397  
         C         C         0.72960   0.73352   0.03251   0.077067  
         C         C         0.75166   0.72717   0.94570   -0.131679           
         C         C         0.77177   0.74354   0.91555   -0.134103           
         C         C         0.70995   0.71673   0.06321   -0.078638           
         C         C         0.69327   0.70157   0.08945   -0.084788           
         C         C         0.67492   0.68307   0.11206   0.125488  
         C         C         0.65227   0.68679   0.20232   -0.127381           
         C         C         0.63462   0.66806   0.22133   -0.130704           
         C         C         0.63866   0.64531   0.14862   0.055243  
         C         C         0.66121   0.64168   0.05799   -0.105853           
         C         C         0.67911   0.66003   0.04077   -0.127406           
         N         N         0.70868   0.76774   0.17340   -0.345391           
         S         S         0.71677   0.79590   0.20607   0.437498  
         N         N         0.74476   0.79726   0.11872   -0.349153           
         H         H         0.88537   0.82930   0.73772   0.104745  
         H         H         0.85327   0.79616   0.76516   0.116421  
         H         H         0.80321   0.84441   0.02382   0.124531  
         H         H         0.83585   0.87758   -0.00240  0.115234  
         H         H         0.75293   0.70880   0.89895   0.122443  
         H         H         0.78819   0.73759   0.84519   0.122673  
         H         H         0.64912   0.70433   0.25887   0.125153  
         H         H         0.61749   0.67097   0.29380   0.108434  
         H         H         0.66392   0.62410   0.00121   0.113207  
         H         H         0.69640   0.65721   0.96994   0.115615  
         C         C         0.88198   0.87477   0.85388   0.066321  
         N         N         0.87913   0.89512   0.93014   -0.302601           
         N         N         0.62164   0.60667   0.07412   -0.299101           
         C         C         0.62007   0.62571   0.16641   0.063457  
         H         H         0.10350   0.12848   0.75058   0.069287  
         H         H         0.40172   0.36944   0.24518   0.067173  
         C         C         0.43460   0.49956   0.12187   -0.183645           
         C         C         0.51569   0.50018   0.07326   0.004724  
         H         H         0.41415   0.49945   0.14911   0.104398  
         C         C         0.56969   0.50070   0.08629   -0.185143           
         C         C         0.48803   0.49993   0.08130   0.004333  
         H         H         0.59061   0.50091   0.10423   0.103674  
         C         C         0.93376   -0.00039  0.92795   -0.185617           
         C         C         0.01552   0.00006   0.94863   0.006390  
         H         H         0.91285   -0.00041  0.90884   0.103849  
         C         C         0.06944   0.00052   0.92852   -0.184171           
         C         C         0.98778   -0.00016  0.94929   0.005304  
         H         H         0.09021   0.00064   0.91136   0.105615  
         C         C         0.52628   0.52257   0.57235   0.035455  
         C         C         0.48502   0.54393   0.55238   -0.136887           
         C         C         0.44371   0.52183   0.60059   0.023518  
         C         C         0.42763   0.54388   0.60221   0.062904  
         C         C         0.40365   0.54400   0.51379   -0.128522           
         C         C         0.38779   0.56426   0.51068   -0.147677           
         C         C         0.39503   0.58539   0.59745   0.197197  
         C         C         0.41901   0.58545   0.68638   -0.171017           
         C         C         0.43482   0.56506   0.68920   -0.120689           
         H         H         0.47430   0.56061   0.53138   0.102352  
         H         H         0.39805   0.52825   0.44055   0.106555  
         H         H         0.36967   0.56444   0.43812   0.119302  
         H         H         0.42516   0.60143   0.75541   0.109390  
         H         H         0.45279   0.56522   0.76348   0.103899  
         C         C         0.02638   0.02188   0.44716   0.033633  
         C         C         0.98598   0.04362   0.48468   -0.134889           
         C         C         0.94351   0.02220   0.44741   0.024992  
         C         C         0.92764   0.04442   0.44542   0.062160  
         C         C         0.93441   0.06575   0.35973   -0.121842           
         C         C         0.91887   0.08629   0.36059   -0.168600           
         C         C         0.89536   0.08622   0.44472   0.197639  
         C         C         0.88838   0.06487   0.52859   -0.146317           
         C         C         0.90410   0.04453   0.52897   -0.125831           
         H         H         0.97599   0.06033   0.51178   0.103497  
         H         H         0.95169   0.06587   0.28617   0.103912  
         H         H         0.92484   0.10225   0.29190   0.109441  
         H         H         0.87058   0.06500   0.59687   0.119851  
         H         H         0.89866   0.02871   0.60093   0.106765  
         C         C         0.13633   0.85561   0.35979   0.055440  
         C         C         0.13260   0.83353   0.27578   -0.129890           
         C         C         0.15016   0.81465   0.29779   -0.133781           
         C         C         0.17237   0.81754   0.40305   0.128205  
         C         C         0.17621   0.83988   0.48643   -0.117876           
         C         C         0.15845   0.85842   0.46536   -0.108128           
         C         C         0.19087   0.79904   0.42679   -0.081450           
         C         C         0.20805   0.78409   0.45201   -0.078300           
         C         C         0.22822   0.76755   0.48186   0.076280  
         C         C         0.25104   0.77430   0.57782   0.106050  
         C         C         0.27187   0.75719   0.60856   0.108012  
         C         C         0.27026   0.73303   0.54473   0.076708  
         C         C         0.24783   0.72732   0.44999   -0.134196           
         C         C         0.22765   0.74390   0.41977   -0.132250           
         C         C         0.28993   0.71594   0.57593   -0.078329           
         C         C         0.30651   0.70038   0.60023   -0.085075           
         C         C         0.32475   0.68156   0.62177   0.127495  
         C         C         0.34722   0.68414   0.72515   -0.128647           
         C         C         0.36447   0.66498   0.74572   -0.128357           
         C         C         0.36029   0.64297   0.66155   0.055350  
         C         C         0.33803   0.64053   0.55670   -0.108407           
         C         C         0.32049   0.65931   0.53798   -0.126524           
         N         N         0.29199   0.76641   0.69891   -0.345387           
         S         S         0.28419   0.79437   0.73779   0.435682  
         N         N         0.25566   0.79621   0.64589   -0.347705           
         H         H         0.11580   0.83130   0.19199   0.103219  
         H         H         0.14730   0.79772   0.23157   0.117273  
         H         H         0.19322   0.84198   0.56835   0.122073  
         H         H         0.16108   0.87551   0.53011   0.115858  
         H         H         0.24619   0.70929   0.39713   0.124544  
         H         H         0.21091   0.73837   0.34385   0.121046  
         H         H         0.35048   0.70106   0.79092   0.124865  
         H         H         0.38138   0.66688   0.82897   0.105449  
         H         H         0.33508   0.62354   0.49126   0.113670  
         H         H         0.30336   0.65738   0.45702   0.114528  
         C         C         0.11772   0.87523   0.33756   0.069456  
         N         N         0.11871   0.89366   0.43608   -0.300848           
         N         N         0.37768   0.60480   0.58272   -0.298986           
         C         C         0.37858   0.62302   0.68330   0.067512  
         H         H         0.89414   0.12772   0.27169   0.066289  
         H         H         0.60609   0.37396   0.76712   0.068033  
         C         C         0.47128   0.47720   0.58271   0.035903  
         C         C         0.51203   0.45596   0.54534   -0.132435           
         C         C         0.55414   0.47794   0.58490   0.023608  
         C         C         0.57040   0.45599   0.58752   0.061978  
         C         C         0.59398   0.45632   0.50455   -0.128157           
         C         C         0.61006   0.43622   0.50411   -0.145843           
         C         C         0.60341   0.41470   0.58696   0.199189  
         C         C         0.57983   0.41419   0.67026   -0.168356           
         C         C         0.56392   0.43447   0.67187   -0.122040           
         H         H         0.52226   0.43945   0.51637   0.104941  
         H         H         0.59910   0.47228   0.43308   0.107214  
         H         H         0.62783   0.43645   0.43557   0.119139  
         H         H         0.57403   0.39797   0.73665   0.108585  
         H         H         0.54651   0.43399   0.74412   0.102700  
         C         C         0.97079   0.97719   0.45783   0.035492  
         C         C         0.01179   0.95535   0.47704   -0.133201           
         C         C         0.05331   0.97694   0.42465   0.024338  
         C         C         0.06919   0.95479   0.41992   0.061254  
         C         C         0.06146   0.93350   0.33586   -0.123043           
         C         C         0.07712   0.91302   0.33667   -0.173151           
         C         C         0.10145   0.91305   0.42137   0.200750  
         C         C         0.10930   0.93430   0.50429   -0.149124           
         C         C         0.09364   0.95467   0.50274   -0.125116           
         H         H         0.02230   0.93856   0.49856   0.104069  
         H         H         0.04317   0.93337   0.26506   0.103210  
         H         H         0.07056   0.89698   0.26976   0.109112  
         H         H         0.12774   0.93401   0.57331   0.121903  
         H         H         0.09980   0.97050   0.57340   0.107716  
         C         C         0.86100   0.14455   0.38599   0.055368  
         C         C         0.86526   0.16747   0.31406   -0.131651           
         C         C         0.84770   0.18622   0.33281   -0.134226           
         C         C         0.82497   0.18239   0.42219   0.128827  
         C         C         0.82055   0.15923   0.49293   -0.118804           
         C         C         0.83834   0.14083   0.47588   -0.105467           
         C         C         0.80667   0.20088   0.44332   -0.080518           
         C         C         0.78985   0.21596   0.46635   -0.078318           
         C         C         0.77015   0.23280   0.49200   0.073801  
         C         C         0.74750   0.22627   0.58109   0.107038  
         C         C         0.72719   0.24373   0.60662   0.111674  
         C         C         0.72910   0.26796   0.54316   0.075858  
         C         C         0.75135   0.27348   0.45530   -0.129493           
         C         C         0.77112   0.25659   0.43093   -0.132131           
         C         C         0.70981   0.28526   0.56860   -0.075524           
         C         C         0.69350   0.30084   0.59118   -0.090432           
         C         C         0.67533   0.31944   0.61380   0.129680  
         C         C         0.65260   0.31548   0.70314   -0.127635           
         C         C         0.63495   0.33414   0.72232   -0.129519           
         C         C         0.63902   0.35712   0.65082   0.052885  
         C         C         0.66171   0.36102   0.56176   -0.108396           
         C         C         0.67961   0.34270   0.54447   -0.128244           
         N         N         0.70720   0.23468   0.69113   -0.343898           
         S         S         0.71446   0.20647   0.73087   0.438309  
         N         N         0.74263   0.20426   0.64664   -0.350220           
         H         H         0.88248   0.17045   0.24223   0.106410  
         H         H         0.85091   0.20383   0.27617   0.118181  
         H         H         0.80303   0.15638   0.56171   0.123821  
         H         H         0.83529   0.12313   0.53163   0.114843  
         H         H         0.75303   0.29157   0.40275   0.122143  
         H         H         0.78777   0.26186   0.35974   0.121064  
         H         H         0.64941   0.29779   0.75879   0.125772  
         H         H         0.61772   0.33101   0.79378   0.108775  
         H         H         0.66465   0.37875   0.50621   0.116345  
         H         H         0.69702   0.34577   0.47506   0.116758  
         C         C         0.87954   0.12498   0.36652   0.065892  
         N         N         0.87812   0.10558   0.45690   -0.299881           
         N         N         0.62095   0.39556   0.57488   -0.303801           
         C         C         0.62023   0.37651   0.66932   0.068210  
         H         H         0.10353   0.87345   0.23350   0.067210  
         H         H         0.39250   0.62439   0.78943   0.067610  
         C         C         0.52661   0.47760   0.57219   0.035927  
         C         C         0.48565   0.45575   0.55149   -0.137986           
         C         C         0.44402   0.47713   0.60217   0.023432  
         C         C         0.42825   0.45482   0.60561   0.062921  
         C         C         0.40405   0.45456   0.51962   -0.128351           
         C         C         0.38847   0.43411   0.51771   -0.146482           
         C         C         0.39624   0.41283   0.60256   0.200146  
         C         C         0.42039   0.41290   0.68959   -0.172707           
         C         C         0.43590   0.43351   0.69161   -0.120180           
         H         H         0.47517   0.43897   0.53005   0.102812  
         H         H         0.39803   0.47042   0.44751   0.106062  
         H         H         0.37017   0.43382   0.44714   0.119685  
         H         H         0.42696   0.39679   0.75700   0.109119  
         H         H         0.45400   0.43341   0.76465   0.103547  
         C         C         0.02609   0.97690   0.44553   0.035280  
         C         C         0.98541   0.95550   0.48359   -0.137225           
         C         C         0.94326   0.97751   0.44561   0.023102  
         C         C         0.92720   0.95545   0.43955   0.061764  
         C         C         0.93425   0.93448   0.35257   -0.122719           
         C         C         0.91867   0.91398   0.34919   -0.168443           
         C         C         0.89498   0.91370   0.43127   0.196847  
         C         C         0.88760   0.93479   0.51485   -0.145750           
         C         C         0.90331   0.95514   0.51895   -0.125021           
         H         H         0.97523   0.93884   0.51111   0.104227  
         H         H         0.95178   0.93475   0.28151   0.105071  
         H         H         0.92465   0.89836   0.27846   0.108683  
         H         H         0.86952   0.93433   0.57996   0.120718  
         H         H         0.89762   0.97079   0.59048   0.106180  
         C         C         0.13646   0.14324   0.37268   0.056170  
         C         C         0.13204   0.16590   0.29583   -0.128003           
         C         C         0.14951   0.18480   0.31939   -0.132673           
         C         C         0.17232   0.18134   0.41840   0.128848  
         C         C         0.17688   0.15842   0.49428   -0.117173           
         C         C         0.15915   0.13988   0.47256   -0.107447           
         C         C         0.19068   0.19994   0.44228   -0.082271           
         C         C         0.20759   0.21519   0.46524   -0.077675           
         C         C         0.22772   0.23185   0.49237   0.075668  
         C         C         0.25065   0.22511   0.58767   0.106173  
         C         C         0.27165   0.24212   0.61433   0.107117  
         C         C         0.27022   0.26612   0.54564   0.076599  
         C         C         0.24759   0.27191   0.45281   -0.133865           
         C         C         0.22715   0.25545   0.42721   -0.132121           
         C         C         0.29031   0.28292   0.57030   -0.078754           
         C         C         0.30723   0.29823   0.59091   -0.082990           
         C         C         0.32586   0.31668   0.61222   0.128057  
         C         C         0.34785   0.31363   0.71947   -0.130319           
         C         C         0.36548   0.33243   0.74250   -0.128453           
         C         C         0.36206   0.35461   0.65740   0.054579  
         C         C         0.34038   0.35744   0.54778   -0.109071           
         C         C         0.32252   0.33901   0.52619   -0.126925           
         N         N         0.29183   0.23288   0.70456   -0.344028           
         S         S         0.28392   0.20501   0.74774   0.435315  
         N         N         0.25522   0.20324   0.65818   -0.347768           
         H         H         0.11474   0.16853   0.21683   0.105087  
         H         H         0.14618   0.20225   0.25927   0.115911  
         H         H         0.19444   0.15580   0.57048   0.123134  
         H         H         0.16229   0.12236   0.53214   0.115358  
         H         H         0.24610   0.28986   0.39728   0.124255  
         H         H         0.21028   0.26097   0.35185   0.121724  
         H         H         0.35045   0.29658   0.78614   0.124646  
         H         H         0.38206   0.33001   0.82806   0.104748  
         H         H         0.33821   0.37449   0.48077   0.112719  
         H         H         0.30583   0.34135   0.44182   0.113390  
         C         C         0.11795   0.12357   0.34872   0.066282  
         N         N         0.11923   0.10471   0.44484   -0.300013           
         N         N         0.37925   0.39326   0.58604   -0.298113           
         C         C         0.38035   0.37447   0.68289   0.070060  
         H         H         0.89527   0.87181   0.26477   0.065712  
         H         H         0.60474   0.62696   0.76318   0.067263  
         C         C         0.47097   0.52219   0.58232   0.036118  
         C         C         0.51141   0.54410   0.54691   -0.132943           
         C         C         0.55379   0.52262   0.58474   0.024435  
         C         C         0.56972   0.54478   0.58639   0.060908  
         C         C         0.59325   0.54475   0.50283   -0.124204           
         C         C         0.60926   0.56490   0.50271   -0.148078           
         C         C         0.60254   0.58617   0.58642   0.197475  
         C         C         0.57900   0.58642   0.67029   -0.169252           
         C         C         0.56313   0.56609   0.67115   -0.122231           
         H         H         0.52140   0.56093   0.52103   0.104182  
         H         H         0.59841   0.52891   0.43148   0.105437  
         H         H         0.62707   0.56495   0.43450   0.119750  
         H         H         0.57337   0.60239   0.73867   0.108956  
         H         H         0.54577   0.56637   0.74393   0.103562  
         C         C         0.97106   0.02217   0.45862   0.036106  
         C         C         0.01237   0.04350   0.47891   -0.134488           
         C         C         0.05359   0.02158   0.42661   0.027796  
         C         C         0.06966   0.04364   0.42426   0.061607  
         C         C         0.06231   0.06492   0.33738   -0.122481           
         C         C         0.07797   0.08541   0.33979   -0.171581           
         C         C         0.10194   0.08533   0.42882   0.198837  
         C         C         0.10941   0.06407   0.51481   -0.146869           
         C         C         0.09372   0.04369   0.51173   -0.126634           
         H         H         0.02308   0.06015   0.50062   0.104108  
         H         H         0.04434   0.06504   0.26315   0.102431  
         H         H         0.07170   0.10143   0.27028   0.109179  
         H         H         0.12758   0.06438   0.58690   0.120442  
         H         H         0.09952   0.02782   0.58437   0.107577  
         C         C         0.86132   0.85521   0.37198   0.052631  
         C         C         0.86508   0.83268   0.29549   -0.131097           
         C         C         0.84723   0.81407   0.31183   -0.129658           
         C         C         0.82476   0.81764   0.40392   0.128610  
         C         C         0.82089   0.84043   0.47958   -0.120783           
         C         C         0.83893   0.85868   0.46459   -0.105371           
         C         C         0.80622   0.79927   0.42387   -0.079663           
         C         C         0.78937   0.78419   0.44796   -0.079249           
         C         C         0.76961   0.76744   0.47601   0.075277  
         C         C         0.74713   0.77421   0.56547   0.105576  
         C         C         0.72662   0.75697   0.59323   0.112591  
         C         C         0.72833   0.73263   0.53377   0.075484  
         C         C         0.75046   0.72683   0.44604   -0.129476           
         C         C         0.77032   0.74356   0.41818   -0.132494           
         C         C         0.70901   0.71544   0.56324   -0.076930           
         C         C         0.69270   0.69991   0.58873   -0.089739           
         C         C         0.67444   0.68136   0.61166   0.129025  
         C         C         0.65170   0.68529   0.70041   -0.128382           
         C         C         0.63400   0.66664   0.71981   -0.127297           
         C         C         0.63804   0.64376   0.64873   0.054828  
         C         C         0.66075   0.63989   0.55995   -0.108294           
         C         C         0.67872   0.65820   0.54271   -0.126873           
         N         N         0.70670   0.76623   0.67656   -0.342502           
         S         S         0.71433   0.79439   0.71312   0.436933  
         N         N         0.74254   0.79630   0.62887   -0.351173           
         H         H         0.88210   0.82996   0.22156   0.104215  
         H         H         0.85009   0.79677   0.25157   0.115075  
         H         H         0.80365   0.84311   0.55097   0.124184  
         H         H         0.83639   0.87610   0.52401   0.115816  
         H         H         0.75208   0.70862   0.39703   0.122151  
         H         H         0.78686   0.73797   0.34770   0.121251  
         H         H         0.64854   0.70292   0.75529   0.125643  
         H         H         0.61677   0.66977   0.79091   0.106460  
         H         H         0.66357   0.62223   0.50455   0.116029  
         H         H         0.69618   0.65528   0.47381   0.115557  
         C         C         0.88000   0.87472   0.35470   0.065200  
         N         N         0.87783   0.89425   0.44128   -0.297074           
         N         N         0.62008   0.60535   0.57435   -0.301807           
         C         C         0.61914   0.62439   0.66705   0.066872  
         H         H         0.10358   0.12570   0.24568   0.067345  
         H         H         0.39427   0.37264   0.78878   0.066682  
         C         C         0.43129   0.49940   0.61288   -0.184887           
         C         C         0.51265   0.49998   0.57686   0.005609  
         H         H         0.41061   0.49931   0.63344   0.103511  
         C         C         0.56664   0.50036   0.59443   -0.184104           
         C         C         0.48495   0.49979   0.58209   0.004256  
         H         H         0.58756   0.50053   0.61303   0.103037  
         C         C         0.93067   -0.00007  0.43786   -0.186099           
         C         C         0.01241   -0.00053  0.44719   0.006397  
         H         H         0.90974   -0.00001  0.42011   0.103561  
         C         C         0.06599   0.99924   0.41275   -0.185110           
         C         C         0.98472   -0.00039  0.45327   0.003711  
         H         H         0.08658   0.99924   0.38944   0.103642 

