
##########################################################################
#               Crystallographic Information Format file
#               Produced by PyCifRW module
#
#  This is a CIF file.  CIF has been adopted by the International
#  Union of Crystallography as the standard for data archiving and
#  transmission.
#
#  For information on this file format, follow the CIF links at
#  http://www.iucr.org
##########################################################################

data_image0

_cell_length_a                          48.9811
_cell_length_b                          57.538
_cell_length_c                          8.13899
_cell_angle_alpha                       89.3298
_cell_angle_beta                        90.304
_cell_angle_gamma                       89.9267
_symmetry_space_group_name_H-M          'P 1'
_space_group_name_Hall                  'P 1'
loop_
  _atom_site_type_symbol
  _atom_site_label
  _atom_site_fract_x
  _atom_site_fract_y
  _atom_site_fract_z
  _atom_site_charge
         C         C         0.27796   0.27262   0.02827   0.034675  
         C         C         0.23466   0.29338   0.00233   -0.136892           
         C         C         0.19056   0.27236   0.04987   0.023710  
         C         C         0.17404   0.29380   0.05914   0.061195  
         C         C         0.14839   0.29492   0.98026   -0.126474           
         C         C         0.13252   0.31493   0.98395   -0.147870           
         C         C         0.14146   0.33483   0.06746   0.197185  
         C         C         0.16702   0.33382   0.14803   -0.171704           
         C         C         0.18272   0.31367   0.14494   -0.121445           
         H         H         0.22365   0.30951   0.98013   0.104296  
         H         H         0.14148   0.28021   0.90842   0.107644  
         H         H         0.11318   0.31592   0.91796   0.120726  
         H         H         0.17458   0.34882   0.21447   0.107939  
         H         H         0.20183   0.31304   0.21346   0.103298  
         C         C         0.77948   0.77187   0.96778   0.034816  
         C         C         0.73650   0.79291   0.99534   -0.138129           
         C         C         0.69206   0.77236   0.94974   0.023233  
         C         C         0.67538   0.79377   0.94780   0.063481  
         C         C         0.68306   0.81435   0.86405   -0.124123           
         C         C         0.66695   0.83427   0.86771   -0.168322           
         C         C         0.64198   0.83438   0.95356   0.196787  
         C         C         0.63405   0.81375   0.03467   -0.145784           
         C         C         0.65031   0.79398   0.03174   -0.125995           
         H         H         0.72576   0.80904   0.01883   0.104819  
         H         H         0.70163   0.81441   0.79134   0.104594  
         H         H         0.67365   0.84971   0.80093   0.108127  
         H         H         0.61514   0.81399   0.10400   0.119538  
         H         H         0.64418   0.77865   0.10166   0.106836  
         C         C         0.89065   0.60936   0.88306   0.053140  
         C         C         0.88490   0.58832   0.80336   -0.129376           
         C         C         0.90223   0.56929   0.82055   -0.137534           
         C         C         0.92630   0.57090   0.91632   0.133207  
         C         C         0.93212   0.59214   -0.00402  -0.130823           
         C         C         0.91451   0.61086   0.98021   -0.106184           
         C         C         0.94434   0.55187   0.93171   -0.116644           
         C         C         0.95967   0.53508   0.94059   -0.077935           
         C         C         0.97933   0.51738   0.96408   0.035729  
         C         C         0.00333   0.52370   0.04953   -0.230320           
         C         C         0.02437   0.50826   0.08784   0.187773  
         H         H         0.86671   0.58699   0.72668   0.105345  
         H         H         0.89778   0.55318   0.75739   0.115526  
         H         H         0.95050   0.59346   0.07076   0.117023  
         H         H         0.91861   0.62711   0.04246   0.115702  
         H         H         0.99540   0.46044   0.91407   0.142820  
         C         C         0.87232   0.62919   0.86427   0.067621  
         N         N         0.87493   0.64714   0.95754   -0.303757           
         H         H         0.64373   0.87525   0.79816   0.066860  
         C         C         0.60856   0.89192   0.90800   0.051102  
         C         C         0.61448   0.91365   0.83496   -0.131203           
         C         C         0.59700   0.93248   0.85273   -0.135439           
         C         C         0.57256   0.93005   0.94267   0.131154  
         C         C         0.56661   0.90815   0.01602   -0.131824           
         C         C         0.58428   0.88954   -0.00092  -0.104230           
         C         C         0.55399   0.94862   0.95853   -0.118698           
         C         C         0.53633   0.96349   0.97585   -0.074923           
         C         C         0.51710   0.98171   0.98511   0.030700  
         C         C         0.49159   0.98041   0.06796   0.196477  
         C         C         0.47511   0.00019   0.07267   -0.234562           
         H         H         0.63288   0.91555   0.76155   0.107161  
         H         H         0.60164   0.94911   0.79474   0.119799  
         H         H         0.54800   0.90626   0.08727   0.115210  
         H         H         0.57989   0.87274   0.05552   0.115070  
         H         H         0.54257   0.00387   0.83516   0.139336  
         C         C         0.62725   0.87246   0.88751   0.062965  
         N         N         0.62417   0.85328   0.97010   -0.302277           
         H         H         0.85680   0.62790   0.76667   0.066333  
         C         C         0.27806   0.22941   0.03121   0.036579  
         C         C         0.23492   0.20867   0.00195   -0.136136           
         C         C         0.19065   0.22943   0.04763   0.026325  
         C         C         0.17412   0.20797   0.05192   0.060687  
         C         C         0.14895   0.20738   0.96755   -0.127056           
         C         C         0.13304   0.18741   0.96513   -0.148066           
         C         C         0.14143   0.16699   0.04818   0.199831  
         C         C         0.16643   0.16752   0.13496   -0.173006           
         C         C         0.18223   0.18760   0.13745   -0.122401           
         H         H         0.22405   0.19263   0.97773   0.103722  
         H         H         0.14249   0.22258   0.89664   0.106463  
         H         H         0.11415   0.18686   0.89452   0.120126  
         H         H         0.17355   0.15215   0.20160   0.108456  
         H         H         0.20094   0.18776   0.21002   0.104640  
         C         C         0.77922   0.72869   0.96901   0.035387  
         C         C         0.73586   0.70819   0.99557   -0.134742           
         C         C         0.69178   0.72943   0.94790   0.025389  
         C         C         0.67502   0.70813   0.94200   0.060322  
         C         C         0.68305   0.68803   0.85714   -0.122635           
         C         C         0.66714   0.66800   0.85834   -0.172741           
         C         C         0.64214   0.66731   0.94349   0.199823  
         C         C         0.63378   0.68751   0.02535   -0.148859           
         C         C         0.64977   0.70743   0.02410   -0.127095           
         H         H         0.72476   0.69218   0.01911   0.103656  
         H         H         0.70179   0.68841   0.78608   0.104109  
         H         H         0.67416   0.65284   0.79194   0.109386  
         H         H         0.61482   0.68682   0.09406   0.120065  
         H         H         0.64334   0.72243   0.09420   0.106721  
         C         C         0.89269   0.89009   0.89238   0.051278  
         C         C         0.88734   0.91196   0.81960   -0.128662           
         C         C         0.90514   0.93049   0.84142   -0.134761           
         C         C         0.92920   0.92756   0.93601   0.130471  
         C         C         0.93474   0.90539   0.00725   -0.132718           
         C         C         0.91679   0.88714   0.98598   -0.104147           
         C         C         0.94759   0.94602   0.96172   -0.121528           
         C         C         0.96493   0.96078   0.99041   -0.074117           
         C         C         0.98384   0.97902   0.01215   0.036917  
         C         C         0.00935   0.97713   0.09613   0.192949  
         C         C         0.02624   0.99657   0.10264   -0.234565           
         H         H         0.86904   0.91426   0.74465   0.108126  
         H         H         0.90098   0.94730   0.78418   0.118208  
         H         H         0.95307   0.90308   0.08168   0.111895  
         H         H         0.92054   0.87021   0.04237   0.113442  
         H         H         0.95739   0.00265   0.87881   0.141149  
         C         C         0.87355   0.87098   0.87234   0.064779  
         N         N         0.87693   0.85173   0.95400   -0.304264           
         H         H         0.64077   0.62941   0.75959   0.065734  
         H         H         0.85652   0.87413   0.78630   0.067416  
         C         C         0.60886   0.61014   0.88724   0.051266  
         C         C         0.61415   0.58927   0.80415   -0.129633           
         C         C         0.59721   0.57008   0.82350   -0.136159           
         C         C         0.57391   0.57138   0.92452   0.128488  
         C         C         0.56866   0.59238   0.00842   -0.132237           
         C         C         0.58591   0.61126   0.99077   -0.105109           
         C         C         0.55566   0.55255   0.94147   -0.117225           
         C         C         0.53819   0.53754   0.95908   -0.074132           
         C         C         0.51907   0.51932   0.97482   0.039093  
         C         C         0.49210   0.52213   0.03591   0.194625  
         C         C         0.47513   0.50279   0.04485   -0.230660           
         H         H         0.63166   0.58829   0.72267   0.104917  
         H         H         0.60126   0.55412   0.75770   0.119111  
         H         H         0.55096   0.59338   0.08813   0.109887  
         H         H         0.58218   0.62736   0.05581   0.113860  
         H         H         0.54740   0.49467   0.87368   0.140287  
         C         C         0.62664   0.63023   0.86404   0.070494  
         N         N         0.62504   0.64794   0.96025   -0.300963           
         C         C         0.17725   0.25086   0.06000   -0.186202           
         C         C         0.26339   0.25101   0.03127   0.004990  
         H         H         0.15538   0.25078   0.08262   0.105159  
         C         C         0.32028   0.25102   0.05855   -0.185453           
         C         C         0.23410   0.25097   0.03148   0.005020  
         H         H         0.34218   0.25106   0.08115   0.104437  
         O         O         0.04603   0.51842   0.16668   -0.159852           
         C         C         0.06890   0.50472   0.22215   -0.188201           
         H         H         0.08186   0.51687   0.28963   0.119681  
         H         H         0.06243   0.49058   0.30457   0.100623  
         H         H         0.08013   0.49752   0.11796   0.098076  
         O         O         0.48003   0.54251   0.08284   -0.166921           
         C         C         0.49605   0.56144   0.14507   -0.188111           
         H         H         0.48181   0.57143   0.22016   0.112855  
         H         H         0.51314   0.55527   0.22142   0.097372  
         H         H         0.50386   0.57242   0.04484   0.096403  
         O         O         0.48008   0.96150   0.14282   -0.155984           
         C         C         0.49515   0.94038   0.17264   -0.189627           
         H         H         0.48219   0.93027   0.25624   0.120843  
         H         H         0.49831   0.93086   0.05817   0.097521  
         H         H         0.51483   0.94379   0.23222   0.100730  
         O         O         0.02004   0.95802   0.17510   -0.159897           
         C         C         0.00725   0.93564   0.16471   -0.185289           
         H         H         0.02119   0.92388   0.23106   0.116078  
         H         H         0.98716   0.93562   0.22382   0.099510  
         H         H         0.00519   0.93008   0.03674   0.101663  
         C         C         0.72071   0.72908   0.96634   0.036250  
         C         C         0.76377   0.70799   -0.00307  -0.136780           
         C         C         0.80815   0.72869   0.95294   0.024216  
         C         C         0.82474   0.70729   0.94769   0.062358  
         C         C         0.85005   0.70634   0.03063   -0.127508           
         C         C         0.86605   0.68640   0.02935   -0.148979           
         C         C         0.85758   0.66644   0.94462   0.198251  
         C         C         0.83248   0.66740   0.85892   -0.170467           
         C         C         0.81659   0.68744   0.86008   -0.122916           
         H         H         0.77460   0.69182   0.02139   0.104459  
         H         H         0.85658   0.72115   0.10290   0.106961  
         H         H         0.88516   0.68548   0.09782   0.119703  
         H         H         0.82551   0.65252   0.78911   0.108289  
         H         H         0.79782   0.68815   0.78823   0.104053  
         C         C         0.21955   0.22935   0.03020   0.035380  
         C         C         0.26283   0.20869   0.00287   -0.135656           
         C         C         0.30697   0.22956   0.04975   0.024189  
         C         C         0.32382   0.20830   0.05773   0.061642  
         C         C         0.31604   0.18796   0.14384   -0.122236           
         C         C         0.33236   0.16813   0.14541   -0.171768           
         C         C         0.35754   0.16797   0.06208   0.199873  
         C         C         0.36558   0.18837   0.97844   -0.149079           
         C         C         0.34918   0.20805   0.97679   -0.127803           
         H         H         0.27379   0.19266   0.97942   0.104058  
         H         H         0.29719   0.18803   0.21385   0.104242  
         H         H         0.32555   0.15274   0.21233   0.109706  
         H         H         0.38465   0.18795   0.91074   0.119395  
         H         H         0.35532   0.22321   0.90505   0.107107  
         C         C         0.10866   0.39180   0.13629   0.050858  
         C         C         0.11456   0.41271   0.21748   -0.128370           
         C         C         0.09753   0.43193   0.19981   -0.136063           
         C         C         0.07367   0.43068   0.10179   0.129905  
         C         C         0.06778   0.40960   0.02032   -0.128516           
         C         C         0.08506   0.39067   0.03668   -0.105396           
         C         C         0.05588   0.44984   0.08420   -0.113011           
         C         C         0.04072   0.46669   0.06971   -0.082434           
         C         C         0.02151   0.48460   0.04037   0.035794  
         C         C         0.99766   0.47835   0.95283   -0.240367           
         C         C         0.97674   0.49386   0.91341   0.188002  
         H         H         0.13262   0.41377   0.29561   0.103661  
         H         H         0.10208   0.44792   0.26414   0.112055  
         H         H         0.04961   0.40865   0.94333   0.117947  
         H         H         0.08090   0.37452   0.97311   0.115920  
         H         H         0.00541   0.54160   0.08866   0.141380  
         C         C         0.12659   0.37169   0.15502   0.069169  
         N         N         0.12429   0.35425   0.05677   -0.301634           
         H         H         0.36093   0.12983   0.25192   0.068621  
         C         C         0.39293   0.11157   0.11789   0.053319  
         C         C         0.38869   0.09001   0.19741   -0.127029           
         C         C         0.40574   0.07119   0.16756   -0.131822           
         C         C         0.42810   0.07359   0.05974   0.128297  
         C         C         0.43254   0.09540   0.98168   -0.128407           
         C         C         0.41516   0.11388   0.00959   -0.110031           
         C         C         0.44605   0.05492   0.03030   -0.108932           
         C         C         0.46291   0.03971   0.00374   -0.074660           
         C         C         0.48162   0.02115   0.99073   0.043310  
         C         C         0.50649   0.02214   0.90084   0.185272  
         C         C         0.52357   0.00284   0.90300   -0.231956           
         H         H         0.37191   0.08805   0.28361   0.104522  
         H         H         0.40234   0.05457   0.22896   0.116865  
         H         H         0.44951   0.09733   0.89701   0.109960  
         H         H         0.41814   0.13051   0.94749   0.113748  
         H         H         0.45615   0.99910   0.14100   0.141876  
         C         C         0.37457   0.13113   0.14526   0.070384  
         N         N         0.37512   0.14897   0.04701   -0.299559           
         H         H         0.14145   0.37225   0.25677   0.067510  
         C         C         0.72101   0.77231   0.96705   0.036094  
         C         C         0.76440   0.79270   0.99523   -0.133888           
         C         C         0.80837   0.77153   0.95135   0.024620  
         C         C         0.82520   0.79275   0.94589   0.063348  
         C         C         0.85023   0.79313   0.03156   -0.128128           
         C         C         0.86666   0.81278   0.02995   -0.145824           
         C         C         0.85890   0.83297   0.94203   0.198168  
         C         C         0.83403   0.83258   0.85367   -0.170520           
         C         C         0.81768   0.81284   0.85542   -0.121787           
         H         H         0.77551   0.80866   0.01840   0.103181  
         H         H         0.85617   0.77807   0.10554   0.107415  
         H         H         0.88557   0.81330   0.10038   0.118692  
         H         H         0.82767   0.84755   0.78003   0.108964  
         H         H         0.79915   0.81257   0.78120   0.103876  
         C         C         0.21945   0.27256   0.03085   0.034038  
         C         C         0.26257   0.29340   0.00070   -0.135917           
         C         C         0.30691   0.27245   0.04422   0.023163  
         C         C         0.32376   0.29370   0.04565   0.065196  
         C         C         0.31650   0.31383   0.13274   -0.125492           
         C         C         0.33307   0.33343   0.13264   -0.168723           
         C         C         0.35796   0.33370   0.04597   0.197700  
         C         C         0.36538   0.31354   0.96054   -0.146411           
         C         C         0.34871   0.29403   0.96052   -0.127927           
         H         H         0.27342   0.30953   0.97672   0.104385  
         H         H         0.29805   0.31366   0.20654   0.105292  
         H         H         0.32693   0.34834   0.20464   0.108882  
         H         H         0.38428   0.31393   0.89113   0.118150  
         H         H         0.35448   0.27900   0.88863   0.107449  
         C         C         0.10883   0.10942   0.10572   0.052311  
         C         C         0.11445   0.08853   0.19155   -0.128462           
         C         C         0.09763   0.06926   0.17502   -0.134441           
         C         C         0.07414   0.07047   0.07378   0.130290  
         C         C         0.06874   0.09139   0.98538   -0.130343           
         C         C         0.08583   0.11040   0.00087   -0.108462           
         C         C         0.05586   0.05162   0.06143   -0.114108           
         C         C         0.03837   0.03660   0.04644   -0.077033           
         C         C         0.01925   0.01837   0.03276   0.037129  
         C         C         0.99326   0.02052   0.95408   0.192368  
         C         C         0.97677   0.00091   0.94332   -0.232240           
         H         H         0.13213   0.08757   0.27296   0.102244  
         H         H         0.10194   0.05327   0.24283   0.118144  
         H         H         0.05100   0.09229   0.90462   0.110153  
         H         H         0.08186   0.12648   0.93325   0.115134  
         H         H         0.04572   0.99467   0.16579   0.141151  
         C         C         0.12638   0.12961   0.12761   0.069318  
         N         N         0.12440   0.14761   0.03125   -0.298321           
         H         H         0.35486   0.37477   0.19088   0.065174  
         H         H         0.14082   0.12860   0.23151   0.064727  
         C         C         0.39203   0.39062   0.09814   0.051785  
         C         C         0.38567   0.41252   0.16377   -0.128615           
         C         C         0.40356   0.43114   0.14821   -0.135682           
         C         C         0.42882   0.42836   0.06763   0.130831  
         C         C         0.43535   0.40620   0.00370   -0.132675           
         C         C         0.41731   0.38782   0.01829   -0.104933           
         C         C         0.44726   0.44699   0.04757   -0.123633           
         C         C         0.46449   0.46197   0.02176   -0.066538           
         C         C         0.48328   0.48027   -0.00285  0.041668  
         C         C         0.51015   0.47755   0.93357   0.195865  
         C         C         0.52707   0.49694   0.92387   -0.232269           
         H         H         0.36643   0.41477   0.22831   0.108317  
         H         H         0.39856   0.44792   0.20014   0.120781  
         H         H         0.45460   0.40398   0.93976   0.113668  
         H         H         0.42198   0.37093   0.96659   0.114935  
         H         H         0.45476   0.50518   0.09421   0.141580  
         C         C         0.37266   0.37153   0.11247   0.063214  
         N         N         0.37644   0.35224   0.03513   -0.307278           
         C         C         0.82164   0.75005   0.94152   -0.185170           
         C         C         0.73545   0.75060   0.96554   0.002720  
         H         H         0.84354   0.74993   0.92045   0.104963  
         C         C         0.67858   0.75099   0.93703   -0.186084           
         C         C         0.76474   0.75038   0.96650   0.006026  
         H         H         0.65666   0.75119   0.91488   0.104687  
         O         O         0.95522   0.48386   0.83269   -0.161994           
         C         C         0.93186   0.49739   0.78200   -0.186048           
         H         H         0.91960   0.48551   0.70779   0.120924  
         H         H         0.93774   0.51236   0.70560   0.100190  
         H         H         0.92029   0.50331   0.88899   0.100836  
         O         O         0.52237   0.45736   0.88378   -0.164134           
         C         C         0.50629   0.43713   0.84833   -0.186271           
         H         H         0.52036   0.42541   0.78549   0.109997  
         H         H         0.48896   0.44144   0.76742   0.098355  
         H         H         0.49885   0.42870   0.96098   0.101527  
         O         O         0.51464   0.04009   0.79998   -0.168500           
         C         C         0.51205   0.06378   0.85171   -0.187133           
         H         H         0.52172   0.07403   0.75386   0.120230  
         H         H         0.52302   0.06646   0.96793   0.096414  
         H         H         0.49062   0.06891   0.86448   0.096398  
         O         O         0.98143   0.04034   0.89141   -0.163748           
         C         C         0.99745   0.06015   0.84190   -0.190245           
         H         H         0.98406   0.07013   0.75886   0.118699  
         H         H         0.01593   0.05502   0.77627   0.099414  
         H         H         0.00294   0.07071   0.94824   0.095172  
         C         C         0.27875   0.27159   0.52999   0.033111  
         C         C         0.23526   0.29207   0.50418   -0.135052           
         C         C         0.19131   0.27078   0.54807   0.026546  
         C         C         0.17449   0.29209   0.55425   0.061651  
         C         C         0.14945   0.29327   0.46855   -0.127238           
         C         C         0.13321   0.31308   0.47373   -0.145448           
         C         C         0.14111   0.33262   0.56509   0.196636  
         C         C         0.16601   0.33143   0.65279   -0.170376           
         C         C         0.18219   0.31158   0.64725   -0.121640           
         H         H         0.22410   0.30811   0.48140   0.104644  
         H         H         0.14321   0.27881   0.39202   0.106697  
         H         H         0.11428   0.31419   0.40363   0.118659  
         H         H         0.17245   0.34580   0.72933   0.109801  
         H         H         0.20075   0.31058   0.72094   0.102630  
         C         C         0.77989   0.77102   0.46829   0.034142  
         C         C         0.73662   0.79174   0.49330   -0.134877           
         C         C         0.69244   0.77081   0.45052   0.024521  
         C         C         0.67551   0.79206   0.44997   0.063104  
         C         C         0.68255   0.81249   0.36263   -0.123430           
         C         C         0.66622   0.83226   0.36713   -0.169856           
         C         C         0.64182   0.83237   0.45839   0.198566  
         C         C         0.63448   0.81185   0.54310   -0.146767           
         C         C         0.65088   0.79217   0.53853   -0.127816           
         H         H         0.72562   0.80779   0.51533   0.104471  
         H         H         0.70071   0.81248   0.28635   0.104135  
         H         H         0.67232   0.84757   0.29688   0.108787  
         H         H         0.61595   0.81210   0.61609   0.119379  
         H         H         0.64528   0.77686   0.61033   0.106106  
         C         C         0.88937   0.60775   0.37474   0.055363  
         C         C         0.88229   0.58631   0.30458   -0.128569           
         C         C         0.89936   0.56710   0.32068   -0.136531           
         C         C         0.92457   0.56895   0.40465   0.130444  
         C         C         0.93187   0.59065   0.47297   -0.127379           
         C         C         0.91444   0.60954   0.45962   -0.105136           
         C         C         0.94241   0.54978   0.42145   -0.108280           
         C         C         0.95832   0.53349   0.43801   -0.074918           
         C         C         0.97773   0.51562   0.46152   0.041904  
         C         C         0.00395   0.52158   0.51913   -0.224154           
         C         C         0.02405   0.50499   0.55181   0.197126  
         H         H         0.86320   0.58485   0.23632   0.106437  
         H         H         0.89379   0.55060   0.26607   0.117322  
         H         H         0.95125   0.59211   0.53777   0.119192  
         H         H         0.91965   0.62613   0.51411   0.118004  
         H         H         0.98694   0.45700   0.44769   0.142327  
         C         C         0.87113   0.62769   0.35884   0.065537  
         N         N         0.87468   0.64581   0.44928   -0.302444           
         H         H         0.64134   0.87262   0.29241   0.065497  
         C         C         0.60740   0.88945   0.41479   0.051682  
         C         C         0.61238   0.91118   0.33932   -0.128965           
         C         C         0.59472   0.92978   0.36167   -0.135252           
         C         C         0.57101   0.92702   0.45815   0.128709  
         C         C         0.56604   0.90515   0.53433   -0.131840           
         C         C         0.58396   0.88682   0.51320   -0.105469           
         C         C         0.55246   0.94556   0.47655   -0.115678           
         C         C         0.53567   0.96124   0.48851   -0.073308           
         C         C         0.51755   0.98026   0.49514   0.037448  
         C         C         0.48949   0.97822   0.53767   0.194255  
         C         C         0.47322   0.99802   0.53710   -0.226330           
         H         H         0.63015   0.91332   0.26084   0.107005  
         H         H         0.59852   0.94645   0.30186   0.119507  
         H         H         0.54814   0.90310   0.61161   0.113066  
         H         H         0.58047   0.87002   0.57199   0.115518  
         H         H         0.54888   0.00434   0.41740   0.140603  
         C         C         0.62608   0.87011   0.38966   0.066466  
         N         N         0.62411   0.85126   0.47727   -0.300566           
         H         H         0.85479   0.62628   0.26636   0.067202  
         C         C         0.27921   0.22836   0.53426   0.034308  
         C         C         0.23620   0.20728   0.51054   -0.136857           
         C         C         0.19177   0.22790   0.54977   0.025074  
         C         C         0.17516   0.20648   0.55392   0.064350  
         C         C         0.15013   0.20600   0.46801   -0.127232           
         C         C         0.13365   0.18639   0.47057   -0.145546           
         C         C         0.14145   0.16618   0.55789   0.195787  
         C         C         0.16631   0.16660   0.64632   -0.170257           
         C         C         0.18266   0.18634   0.64427   -0.123668           
         H         H         0.22534   0.19115   0.48928   0.104925  
         H         H         0.14407   0.22100   0.39386   0.107247  
         H         H         0.11462   0.18592   0.40124   0.119417  
         H         H         0.17247   0.15177   0.72187   0.111434  
         H         H         0.20111   0.18666   0.71915   0.103170  
         C         C         0.78000   0.72782   0.46836   0.034186  
         C         C         0.73683   0.70696   0.49284   -0.135977           
         C         C         0.69259   0.72795   0.44719   0.024057  
         C         C         0.67587   0.70666   0.44058   0.064583  
         C         C         0.68354   0.68677   0.35186   -0.122309           
         C         C         0.66727   0.66701   0.34940   -0.168879           
         C         C         0.64230   0.66633   0.43505   0.195273  
         C         C         0.63428   0.68634   0.52022   -0.144274           
         C         C         0.65069   0.70599   0.52318   -0.130898           
         H         H         0.72586   0.69083   0.51468   0.105034  
         H         H         0.70213   0.68724   0.27942   0.102848  
         H         H         0.67369   0.65226   0.27665   0.109027  
         H         H         0.61518   0.68570   0.58760   0.119107  
         H         H         0.64454   0.72083   0.59584   0.110523  
         C         C         0.89177   0.89002   0.38317   0.053938  
         C         C         0.88572   0.91169   0.30922   -0.130163           
         C         C         0.90289   0.93065   0.33022   -0.135115           
         C         C         0.92709   0.92835   0.42434   0.128700  
         C         C         0.93335   0.90640   0.49656   -0.133114           
         C         C         0.91594   0.88771   0.47688   -0.106799           
         C         C         0.94493   0.94725   0.44791   -0.118928           
         C         C         0.96173   0.96252   0.47441   -0.074173           
         C         C         0.98009   0.98112   0.49649   0.039157  
         C         C         0.00713   0.97880   0.55987   0.197835  
         C         C         0.02389   0.99830   0.56197   -0.230508           
         H         H         0.86739   0.91346   0.23375   0.107723  
         H         H         0.89821   0.94732   0.27232   0.120788  
         H         H         0.95184   0.90454   0.57011   0.111895  
         H         H         0.92031   0.87091   0.53386   0.115388  
         H         H         0.95066   0.00552   0.39755   0.141890  
         C         C         0.87325   0.87046   0.36362   0.066696  
         N         N         0.87651   0.85169   0.45090   -0.302577           
         H         H         0.64722   0.62452   0.30015   0.065175  
         H         H         0.85680   0.87279   0.27239   0.065726  
         C         C         0.60983   0.60870   0.39082   0.053757  
         C         C         0.61665   0.58646   0.33308   -0.128345           
         C         C         0.59864   0.56796   0.34958   -0.132826           
         C         C         0.57290   0.57127   0.42312   0.131263  
         C         C         0.56596   0.59371   0.48008   -0.130406           
         C         C         0.58415   0.61197   0.46482   -0.101635           
         C         C         0.55418   0.55286   0.44085   -0.122138           
         C         C         0.53660   0.53802   0.46128   -0.071954           
         C         C         0.51763   0.51968   0.47471   0.032706  
         C         C         0.49260   0.52060   0.56268   0.197775  
         C         C         0.47652   0.50065   0.57078   -0.233128           
         H         H         0.63628   0.58383   0.27388   0.106514  
         H         H         0.60391   0.55084   0.30418   0.118265  
         H         H         0.54616   0.59625   0.53697   0.113939  
         H         H         0.57925   0.62921   0.50958   0.114494  
         H         H         0.54322   0.49795   0.32551   0.139489  
         C         C         0.62898   0.62790   0.37442   0.060953  
         N         N         0.62431   0.64750   0.44568   -0.302262           
         C         C         0.17812   0.24925   0.55813   -0.184943           
         C         C         0.26439   0.24988   0.53450   0.007162  
         H         H         0.15615   0.24906   0.57689   0.105926  
         C         C         0.32138   0.25027   0.55526   -0.187078           
         C         C         0.23510   0.24967   0.53555   0.005415  
         H         H         0.34340   0.25040   0.57381   0.104785  
         O         O         0.04880   0.51386   0.60007   -0.169661           
         C         C         0.06571   0.50081   0.71407   -0.188640           
         H         H         0.07561   0.51379   0.79195   0.115756  
         H         H         0.05350   0.48905   0.79054   0.099804  
         H         H         0.08115   0.49076   0.64814   0.096927  
         O         O         0.48149   0.53911   0.64265   -0.156010           
         C         C         0.49512   0.56116   0.65254   -0.186139           
         H         H         0.48184   0.57165   0.73050   0.119003  
         H         H         0.51533   0.55948   0.71024   0.099865  
         H         H         0.49694   0.56937   0.53070   0.097418  
         O         O         0.47633   0.95772   0.57375   -0.174249           
         C         C         0.48996   0.94113   0.68040   -0.186630           
         H         H         0.47416   0.93399   0.76150   0.112817  
         H         H         0.49921   0.92721   0.60831   0.096621  
         H         H         0.50579   0.94951   0.75446   0.096721  
         O         O         0.01969   0.95901   0.61677   -0.161908           
         C         C         0.00439   0.93825   0.65206   -0.184778           
         H         H         0.01886   0.92696   0.71835   0.113699  
         H         H         0.98664   0.94186   0.72955   0.099031  
         H         H         0.99763   0.92976   0.53909   0.097678  
         C         C         0.72151   0.72778   0.46491   0.035310  
         C         C         0.76473   0.70699   0.49478   -0.136852           
         C         C         0.80894   0.72799   0.45242   0.026000  
         C         C         0.82542   0.70653   0.44479   0.061808  
         C         C         0.85073   0.70516   0.52726   -0.126280           
         C         C         0.86638   0.68500   0.52432   -0.147655           
         C         C         0.85750   0.66525   0.43877   0.196091  
         C         C         0.83237   0.66662   0.35363   -0.168951           
         C         C         0.81692   0.68689   0.35576   -0.121819           
         H         H         0.77574   0.69088   0.51807   0.104691  
         H         H         0.85762   0.71978   0.60017   0.107841  
         H         H         0.88557   0.68378   0.59177   0.120009  
         H         H         0.82506   0.65194   0.28295   0.109153  
         H         H         0.79821   0.68794   0.28358   0.103751  
         C         C         0.22072   0.22797   0.53559   0.035641  
         C         C         0.26410   0.20746   0.51005   -0.135074           
         C         C         0.30818   0.22874   0.54825   0.024744  
         C         C         0.32517   0.20754   0.55454   0.064573  
         C         C         0.31796   0.18748   0.64577   -0.123130           
         C         C         0.33448   0.16783   0.64879   -0.167175           
         C         C         0.35934   0.16751   0.56217   0.196419  
         C         C         0.36680   0.18763   0.47312   -0.147127           
         C         C         0.35009   0.20714   0.46912   -0.127476           
         H         H         0.27518   0.19143   0.48875   0.104026  
         H         H         0.29951   0.18774   0.71943   0.104432  
         H         H         0.32836   0.15286   0.72248   0.109278  
         H         H         0.38570   0.18720   0.40371   0.118994  
         H         H         0.35575   0.22203   0.39320   0.106646  
         C         C         0.10738   0.38957   0.62458   0.054696  
         C         C         0.11385   0.41151   0.68908   -0.128032           
         C         C         0.09624   0.43030   0.66839   -0.135258           
         C         C         0.07108   0.42759   0.58495   0.129812  
         C         C         0.06437   0.40539   0.52247   -0.126391           
         C         C         0.08228   0.38691   0.54114   -0.106327           
         C         C         0.05293   0.44647   0.56387   -0.114133           
         C         C         0.03735   0.46301   0.54761   -0.077568           
         C         C         0.01818   0.48110   0.52492   0.032428  
         C         C         0.99171   0.47518   0.46788   -0.220716           
         C         C         0.97165   0.49171   0.43705   0.193135  
         H         H         0.13293   0.41375   0.75618   0.106179  
         H         H         0.10140   0.44719   0.71856   0.111410  
         H         H         0.04507   0.40323   0.45757   0.118982  
         H         H         0.07750   0.36995   0.49095   0.117802  
         H         H         0.00870   0.53972   0.54108   0.143464  
         C         C         0.12650   0.37024   0.64199   0.064673  
         N         N         0.12310   0.35154   0.55734   -0.303590           
         H         H         0.35646   0.12578   0.71092   0.068379  
         C         C         0.39340   0.11040   0.61127   0.052543  
         C         C         0.38762   0.08800   0.67318   -0.128116           
         C         C         0.40569   0.06969   0.65014   -0.135955           
         C         C         0.43056   0.07337   0.56644   0.131272  
         C         C         0.43652   0.09606   0.50671   -0.131950           
         C         C         0.41825   0.11409   0.52831   -0.106293           
         C         C         0.44909   0.05499   0.54121   -0.117642           
         C         C         0.46566   0.03948   0.51660   -0.063471           
         C         C         0.48337   0.02036   0.49731   0.041996  
         C         C         0.51132   0.02233   0.45214   0.199717  
         C         C         0.52760   0.00252   0.45221   -0.229823           
         H         H         0.36883   0.08509   0.74132   0.107391  
         H         H         0.40113   0.05247   0.69880   0.120488  
         H         H         0.45547   0.09899   0.44073   0.112436  
         H         H         0.42236   0.13147   0.48075   0.114512  
         H         H         0.45203   0.99623   0.57397   0.141196  
         C         C         0.37397   0.12934   0.63045   0.062406  
         N         N         0.37760   0.14887   0.55289   -0.305574           
         H         H         0.14352   0.37277   0.72840   0.066191  
         C         C         0.72139   0.77099   0.46620   0.036332  
         C         C         0.76453   0.79176   0.49413   -0.135240           
         C         C         0.80883   0.77087   0.45325   0.026056  
         C         C         0.82543   0.79224   0.44739   0.060031  
         C         C         0.85065   0.79286   0.53121   -0.129814           
         C         C         0.86695   0.81258   0.52718   -0.147067           
         C         C         0.85878   0.83271   0.43990   0.198156  
         C         C         0.83364   0.83216   0.35455   -0.170758           
         C         C         0.81752   0.81229   0.35768   -0.120473           
         H         H         0.77540   0.80784   0.51685   0.104279  
         H         H         0.85682   0.77798   0.60627   0.110244  
         H         H         0.88609   0.81323   0.59531   0.119354  
         H         H         0.82684   0.84715   0.28261   0.108986  
         H         H         0.79877   0.81191   0.28565   0.103852  
         C         C         0.22025   0.27116   0.53273   0.034601  
         C         C         0.26315   0.29226   0.50237   -0.133532           
         C         C         0.30774   0.27164   0.54403   0.026349  
         C         C         0.32434   0.29305   0.54545   0.059329  
         C         C         0.31664   0.31335   0.62921   -0.121020           
         C         C         0.33281   0.33322   0.62585   -0.172747           
         C         C         0.35775   0.33348   0.54022   0.199300  
         C         C         0.36567   0.31319   0.45803   -0.151689           
         C         C         0.34943   0.29345   0.46134   -0.124802           
         H         H         0.27388   0.30841   0.47763   0.103269  
         H         H         0.29808   0.31317   0.70197   0.104539  
         H         H         0.32622   0.34854   0.69195   0.109505  
         H         H         0.38454   0.31362   0.38843   0.120204  
         H         H         0.35552   0.27831   0.39154   0.105939  
         C         C         0.10847   0.10856   0.59463   0.055115  
         C         C         0.11513   0.08587   0.64804   -0.128411           
         C         C         0.09674   0.06770   0.63023   -0.132219           
         C         C         0.07078   0.07175   0.55883   0.132340  
         C         C         0.06400   0.09465   0.50646   -0.130668           
         C         C         0.08249   0.11261   0.52396   -0.101422           
         C         C         0.05186   0.05359   0.53870   -0.120626           
         C         C         0.03421   0.03879   0.52041   -0.068947           
         C         C         0.01519   0.02053   0.50882   0.037612  
         C         C         0.98776   0.02315   0.45233   0.194704  
         C         C         0.97126   0.00353   0.44570   -0.231059           
         H         H         0.13501   0.08254   0.70421   0.106545  
         H         H         0.10198   0.05023   0.67202   0.117669  
         H         H         0.04412   0.09782   0.45026   0.112325  
         H         H         0.07754   0.13015   0.48228   0.115296  
         H         H         0.04456   0.99619   0.60889   0.141273  
         C         C         0.12824   0.12727   0.61022   0.057683  
         N         N         0.12313   0.14763   0.54801   -0.298764           
         H         H         0.36178   0.37027   0.73336   0.068643  
         H         H         0.14738   0.12283   0.67452   0.066312  
         C         C         0.39367   0.38920   0.60127   0.053929  
         C         C         0.38936   0.41031   0.68290   -0.128324           
         C         C         0.40680   0.42908   0.65861   -0.136756           
         C         C         0.42962   0.42705   0.55419   0.129141  
         C         C         0.43416   0.40563   0.47423   -0.132887           
         C         C         0.41636   0.38722   0.49641   -0.107147           
         C         C         0.44787   0.44572   0.52994   -0.114284           
         C         C         0.46477   0.46105   0.50651   -0.074158           
         C         C         0.48329   0.47973   0.49158   0.042877  
         C         C         0.50804   0.47898   0.40038   0.188263  
         C         C         0.52439   0.49867   0.39529   -0.231270           
         H         H         0.37223   0.41191   0.76671   0.107852  
         H         H         0.40347   0.44530   0.72279   0.120737  
         H         H         0.45167   0.40396   0.39355   0.109464  
         H         H         0.41943   0.37088   0.43341   0.114146  
         H         H         0.45773   0.50148   0.64073   0.141319  
         C         C         0.37512   0.36965   0.62525   0.068231  
         N         N         0.37532   0.35250   0.52393   -0.297416           
         C         C         0.82231   0.74945   0.44345   -0.185985           
         C         C         0.73606   0.74940   0.46490   0.004733  
         H         H         0.84425   0.74955   0.42366   0.104796  
         C         C         0.67914   0.74940   0.43817   -0.184761           
         C         C         0.76534   0.74941   0.46641   0.006021  
         H         H         0.65718   0.74946   0.41776   0.105080  
         O         O         0.94570   0.48390   0.40063   -0.188747           
         C         C         0.93364   0.49181   0.24706   -0.193431           
         H         H         0.94092   0.48089   0.14639   0.103694  
         H         H         0.93841   0.51010   0.22093   0.094792  
         H         H         0.91149   0.48977   0.26067   0.112055  
         O         O         0.51732   0.46076   0.30824   -0.166253           
         C         C         0.51240   0.43725   0.36201   -0.183351           
         H         H         0.52756   0.42667   0.29817   0.114728  
         H         H         0.49175   0.43161   0.32863   0.096466  
         H         H         0.51553   0.43547   0.49504   0.101754  
         O         O         0.52460   0.04274   0.41660   -0.170332           
         C         C         0.51010   0.06029   0.32317   -0.184853           
         H         H         0.52590   0.07023   0.25855   0.107486  
         H         H         0.49846   0.07178   0.40336   0.096528  
         H         H         0.49615   0.05247   0.23370   0.096263  
         O         O         0.97519   0.04365   0.40828   -0.168491           
         C         C         0.99090   0.06209   0.33344   -0.186311           
         H         H         0.97644   0.07172   0.25509   0.116120  
         H         H         0.00756   0.05529   0.25843   0.100500  
         H         H         -0.00058  0.07362   0.42701   0.094662 

