
##########################################################################
#               Crystallographic Information Format file
#               Produced by PyCifRW module
#
#  This is a CIF file.  CIF has been adopted by the International
#  Union of Crystallography as the standard for data archiving and
#  transmission.
#
#  For information on this file format, follow the CIF links at
#  http://www.iucr.org
##########################################################################

data_image0

_cell_length_a                          55.989
_cell_length_b                          56.0161
_cell_length_c                          8.7673
_cell_angle_alpha                       86.9538
_cell_angle_beta                        93.449
_cell_angle_gamma                       120.145
_symmetry_space_group_name_H-M          'P 1'
_space_group_name_Hall                  'P 1'
loop_
  _atom_site_type_symbol
  _atom_site_label
  _atom_site_fract_x
  _atom_site_fract_y
  _atom_site_fract_z
  _atom_site_charge
         C         C         0.48800   0.48772   0.25678   -0.028009           
         C         C         0.46152   0.48765   0.26530   0.056374  
         C         C         0.43757   0.46847   0.18346   -0.114465           
         C         C         0.41270   0.46835   0.18936   -0.192556           
         C         C         0.41104   0.48803   0.27473   0.202279  
         C         C         0.43483   0.50720   0.35752   -0.164247           
         C         C         0.45906   0.50628   0.35523   -0.116106           
         C         C         0.48404   0.45938   0.25332   0.054098  
         C         C         0.46331   0.43758   0.33985   -0.119148           
         C         C         0.45910   0.41091   0.34085   -0.170372           
         C         C         0.47637   0.40506   0.25940   0.202664  
         C         C         0.49674   0.42639   0.16989   -0.184337           
         C         C         0.49987   0.45262   0.16551   -0.111450           
         C         C         0.36341   0.46876   0.29073   0.061922  
         C         C         0.33808   0.47021   0.27497   0.049520  
         C         C         0.31279   0.44760   0.31980   -0.128091           
         C         C         0.28877   0.44932   0.31220   -0.138036           
         C         C         0.28910   0.47354   0.25697   0.067892  
         C         C         0.31433   0.49568   0.20582   -0.135539           
         C         C         0.33835   0.49419   0.21555   -0.100144           
         C         C         0.26412   0.47605   0.25480   0.059205  
         C         C         0.49275   0.37427   0.29052   0.065848  
         C         C         0.48977   0.34689   0.28463   0.048804  
         C         C         0.51067   0.34202   0.34794   -0.128581           
         C         C         0.50771   0.31581   0.34595   -0.137910           
         C         C         0.48395   0.29372   0.27842   0.066059  
         C         C         0.46329   0.29889   0.21287   -0.136380           
         C         C         0.46602   0.32489   0.21628   -0.101489           
         C         C         0.48063   0.26594   0.27373   0.062911  
         C         C         0.50332   0.26231   0.25338   -0.133101           
         C         C         0.45452   0.24205   0.28793   -0.131541           
         C         C         0.50003   0.23607   0.24675   -0.129189           
         C         C         0.23743   0.45292   0.23933   -0.131555           
         H         H         0.47721   0.52080   0.42036   0.098812  
         H         H         0.43870   0.45387   0.11156   0.104819  
         H         H         0.39480   0.45409   0.12028   0.105050  
         H         H         0.43349   0.52197   0.42695   0.121682  
         H         H         0.45046   0.44179   0.40912   0.100327  
         H         H         0.44340   0.39462   0.41094   0.123401  
         H         H         0.50929   0.42191   0.09939   0.110703  
         H         H         0.51538   0.46868   0.09478   0.099031  
         H         H         0.36119   0.44847   0.32198   0.063796  
         H         H         0.31224   0.42885   0.36483   0.104670  
         H         H         0.26970   0.43206   0.35410   0.108015  
         H         H         0.31476   0.51405   0.15535   0.107869  
         H         H         0.35777   0.51129   0.17639   0.114900  
         H         H         0.51346   0.39144   0.32145   0.066488  
         H         H         0.52900   0.35884   0.40245   0.106305  
         H         H         0.52358   0.31214   0.40070   0.106204  
         H         H         0.44529   0.28236   0.15487   0.109209  
         H         H         0.45018   0.32889   0.16446   0.115919  
         H         H         0.52373   0.28036   0.24047   0.103519  
         H         H         0.43669   0.24424   0.30676   0.104514  
         H         H         0.28648   0.52016   0.28578   0.102916  
         H         H         0.23504   0.43266   0.22490   0.102548  
         N         N         0.38737   0.49041   0.27284   -0.276040           
         N         N         0.47201   0.37817   0.26401   -0.276413           
         C         C         0.51211   -0.00048  0.26282   -0.026341           
         C         C         0.51171   0.97265   0.27074   0.056424  
         C         C         0.53138   0.96965   0.19343   -0.120574           
         C         C         0.53091   0.94455   0.19173   -0.189604           
         C         C         0.51014   0.92094   0.26599   0.200896  
         C         C         0.49072   0.92377   0.34668   -0.164671           
         C         C         0.49209   0.94913   0.35164   -0.111531           
         C         C         0.54047   0.02408   0.26025   0.052553  
         C         C         0.56258   0.02393   0.34582   -0.119997           
         C         C         0.58931   0.04644   0.34552   -0.174861           
         C         C         0.59501   0.07067   0.26120   0.206352  
         C         C         0.57328   0.07117   0.17457   -0.185105           
         C         C         0.54690   0.04823   0.17351   -0.113939           
         C         C         0.52810   0.89124   0.27908   0.064734  
         C         C         0.52626   0.86451   0.26322   0.047915  
         C         C         0.54698   0.85989   0.33210   -0.127114           
         C         C         0.54492   0.83412   0.32825   -0.139405           
         C         C         0.52247   0.81206   0.25179   0.065844  
         C         C         0.50224   0.81714   0.17830   -0.134825           
         C         C         0.50387   0.84266   0.18509   -0.105592           
         C         C         0.52013   0.78460   0.25065   0.057730  
         C         C         0.62673   0.11710   0.29433   0.073141  
         C         C         0.65376   0.14188   0.27796   0.047765  
         C         C         0.66010   0.16582   0.35533   -0.126751           
         C         C         0.68594   0.18948   0.34364   -0.141758           
         C         C         0.70609   0.19011   0.25229   0.064567  
         C         C         0.69935   0.16619   0.17199   -0.136987           
         C         C         0.67369   0.14243   0.18499   -0.103563           
         C         C         0.73357   0.21521   0.24332   0.062552  
         C         C         0.73668   0.24171   0.24868   -0.132029           
         C         C         0.75764   0.21345   0.23399   -0.128441           
         C         C         0.76269   0.26534   0.24666   -0.131899           
         C         C         0.54366   0.78160   0.26905   -0.127962           
         H         H         0.47708   0.95081   0.41567   0.100936  
         H         H         0.54705   0.98730   0.13059   0.105446  
         H         H         0.54562   0.94273   0.12467   0.108762  
         H         H         0.47515   0.90591   0.40891   0.120324  
         H         H         0.55859   0.00561   0.41389   0.100455  
         H         H         0.60583   0.04595   0.41487   0.123263  
         H         H         0.57759   0.08937   0.10415   0.112233  
         H         H         0.53047   0.04927   0.10785   0.101372  
         H         H         0.54837   0.90827   0.31754   0.066068  
         H         H         0.56419   0.87641   0.39526   0.106410  
         H         H         0.56039   0.83074   0.39059   0.109180  
         H         H         0.48524   0.80091   0.11281   0.107199  
         H         H         0.48804   0.84626   0.12911   0.114201  
         H         H         0.61058   0.11999   0.34158   0.065571  
         H         H         0.64488   0.16554   0.42813   0.103646  
         H         H         0.69097   0.20742   0.40971   0.107402  
         H         H         0.71417   0.16654   0.09571   0.106841  
         H         H         0.66833   0.12405   0.12205   0.115464  
         H         H         0.71839   0.24369   0.25406   0.104679  
         H         H         0.75579   0.19320   0.22990   0.106618  
         H         H         0.47560   0.76171   0.22040   0.102786  
         H         H         0.56398   0.79987   0.28202   0.102874  
         N         N         0.50700   0.89465   0.25584   -0.281989           
         N         N         0.62200   0.09307   0.25776   -0.272609           
         C         C         0.00186   0.51256   0.25120   -0.029662           
         C         C         0.02835   0.53940   0.25817   0.056331  
         C         C         0.03143   0.56268   0.17218   -0.116720           
         C         C         0.05623   0.58776   0.17405   -0.191757           
         C         C         0.07932   0.59041   0.26114   0.203586  
         C         C         0.07655   0.56736   0.34803   -0.166425           
         C         C         0.05151   0.54285   0.34783   -0.116133           
         C         C         0.97683   0.51567   0.24297   0.053687  
         C         C         0.97719   0.53746   0.31923   -0.121615           
         C         C         0.95465   0.54158   0.31428   -0.171463           
         C         C         0.92976   0.52305   0.23777   0.204301  
         C         C         0.92904   0.50137   0.15953   -0.186621           
         C         C         0.95221   0.49832   0.16010   -0.108517           
         C         C         0.10781   0.63803   0.28155   0.067755  
         C         C         0.13445   0.66346   0.27017   0.047350  
         C         C         0.13892   0.68777   0.33627   -0.127499           
         C         C         0.16475   0.71165   0.33268   -0.139725           
         C         C         0.18679   0.71222   0.26003   0.066553  
         C         C         0.18191   0.68790   0.19070   -0.135074           
         C         C         0.15635   0.66393   0.19644   -0.105898           
         C         C         0.21435   0.73723   0.25832   0.059962  
         C         C         0.88319   0.50782   0.26996   0.066878  
         C         C         0.85888   0.51122   0.26081   0.048568  
         C         C         0.83493   0.49217   0.33715   -0.127771           
         C         C         0.81185   0.49549   0.33324   -0.142519           
         C         C         0.81178   0.51773   0.25097   0.067612  
         C         C         0.83576   0.53665   0.17363   -0.137655           
         C         C         0.85891   0.53352   0.17844   -0.100900           
         C         C         0.78707   0.52087   0.24546   0.062404  
         C         C         0.76042   0.49766   0.23093   -0.130682           
         C         C         0.78923   0.54688   0.25581   -0.133508           
         C         C         0.73698   0.50030   0.22752   -0.130094           
         C         C         0.21777   0.76390   0.25859   -0.129006           
         H         H         0.04989   0.52521   0.41292   0.100673  
         H         H         0.01409   0.56091   0.10097   0.102363  
         H         H         0.05832   0.60501   0.10136   0.108828  
         H         H         0.09419   0.56927   0.41716   0.121338  
         H         H         0.99576   0.55151   0.38410   0.098722  
         H         H         0.95557   0.55847   0.37498   0.122616  
         H         H         0.91049   0.48771   0.09265   0.109515  
         H         H         0.95103   0.48164   0.09709   0.101565  
         H         H         0.09020   0.63991   0.31504   0.064954  
         H         H         0.12233   0.68754   0.39627   0.104499  
         H         H         0.16823   0.72977   0.39194   0.108216  
         H         H         0.19832   0.68815   0.12895   0.107908  
         H         H         0.15263   0.64522   0.14293   0.115846  
         H         H         0.87986   0.48754   0.31231   0.064960  
         H         H         0.83475   0.47504   0.40315   0.104239  
         H         H         0.79387   0.48122   0.39766   0.108755  
         H         H         0.83578   0.55350   0.10578   0.107461  
         H         H         0.87726   0.54790   0.11703   0.115967  
         H         H         0.75822   0.47738   0.22063   0.103580  
         H         H         0.80962   0.56512   0.26863   0.106407  
         H         H         0.23640   0.71480   0.26012   0.103514  
         H         H         0.19964   0.76630   0.25753   0.103093  
         N         N         0.10526   0.61431   0.25797   -0.275570           
         N         N         0.90739   0.52767   0.23505   -0.274077           
         C         C         0.51365   0.51180   0.25532   -0.023759           
         C         C         0.54028   0.51176   0.26046   0.052177  
         C         C         0.56248   0.53159   0.17450   -0.118237           
         C         C         0.58740   0.53170   0.17205   -0.192216           
         C         C         0.59099   0.51146   0.25481   0.203270  
         C         C         0.56916   0.49173   0.34305   -0.172342           
         C         C         0.54481   0.49242   0.34761   -0.109664           
         C         C         0.51720   0.54013   0.24972   0.054925  
         C         C         0.53917   0.56153   0.33357   -0.123484           
         C         C         0.54287   0.58801   0.33563   -0.167003           
         C         C         0.52413   0.59430   0.25503   0.205087  
         C         C         0.50258   0.57345   0.16705   -0.184175           
         C         C         0.49960   0.54731   0.16388   -0.110358           
         C         C         0.63864   0.53022   0.27944   0.070198  
         C         C         0.66435   0.53003   0.26162   0.045486  
         C         C         0.68842   0.54835   0.34523   -0.128172           
         C         C         0.71269   0.54735   0.33748   -0.139331           
         C         C         0.71383   0.52834   0.24369   0.066014  
         C         C         0.68986   0.51071   0.15592   -0.137739           
         C         C         0.66552   0.51139   0.16498   -0.106590           
         C         C         0.73906   0.52622   0.24041   0.062019  
         C         C         0.50759   0.62444   0.28242   0.067372  
         C         C         0.50961   0.65155   0.27196   0.050452  
         C         C         0.48924   0.65529   0.33522   -0.127221           
         C         C         0.49113   0.68109   0.32954   -0.138767           
         C         C         0.51329   0.70401   0.25858   0.066070  
         C         C         0.53330   0.69998   0.19211   -0.135858           
         C         C         0.53159   0.67433   0.19894   -0.102909           
         C         C         0.51565   0.73149   0.25467   0.065660  
         C         C         0.49212   0.73444   0.23596   -0.132397           
         C         C         0.54152   0.75574   0.27053   -0.132752           
         C         C         0.49430   0.76032   0.23341   -0.129688           
         C         C         0.76573   0.54948   0.25416   -0.132117           
         H         H         0.52837   0.47702   0.41661   0.100163  
         H         H         0.55990   0.54693   0.10589   0.102532  
         H         H         0.60371   0.54650   0.09927   0.111857  
         H         H         0.57191   0.47637   0.41048   0.121486  
         H         H         0.55367   0.55710   0.39865   0.100045  
         H         H         0.55968   0.60384   0.40400   0.123017  
         H         H         0.48870   0.57822   0.09742   0.109442  
         H         H         0.48259   0.53169   0.09680   0.101362  
         H         H         0.64051   0.54873   0.32945   0.067270  
         H         H         0.68769   0.56270   0.42137   0.104412  
         H         H         0.73063   0.56065   0.40932   0.106140  
         H         H         0.69071   0.49683   0.07703   0.108317  
         H         H         0.64722   0.49790   0.09588   0.114782  
         H         H         0.48748   0.60691   0.31534   0.063941  
         H         H         0.47219   0.63792   0.39284   0.103826  
         H         H         0.47580   0.68383   0.38473   0.104437  
         H         H         0.54991   0.71716   0.13105   0.108550  
         H         H         0.54691   0.67123   0.14626   0.116931  
         H         H         0.47188   0.71610   0.22155   0.103728  
         H         H         0.56010   0.75416   0.28700   0.106594  
         H         H         0.71662   0.48195   0.21793   0.105038  
         H         H         0.76799   0.56984   0.26222   0.104071  
         N         N         0.61478   0.50945   0.24412   -0.274803           
         N         N         0.52819   0.62106   0.25722   -0.273443           
         C         C         0.48824   0.00142   0.25624   -0.026155           
         C         C         0.48801   0.02790   0.25777   0.053314  
         C         C         0.46810   0.03127   0.16815   -0.114990           
         C         C         0.46740   0.05582   0.16514   -0.192918           
         C         C         0.48716   0.07837   0.25045   0.202322  
         C         C         0.50706   0.07527   0.34132   -0.167111           
         C         C         0.50687   0.05042   0.34642   -0.112856           
         C         C         0.45990   0.97694   0.24744   0.055428  
         C         C         0.43884   0.97594   0.33307   -0.119979           
         C         C         0.41215   0.95342   0.32968   -0.166379           
         C         C         0.40568   0.93024   0.24409   0.201834  
         C         C         0.42624   0.93122   0.15470   -0.184152           
         C         C         0.45249   0.95437   0.15499   -0.107669           
         C         C         0.46755   0.10611   0.27280   0.066697  
         C         C         0.46812   0.13250   0.26025   0.047202  
         C         C         0.44872   0.13599   0.33609   -0.128944           
         C         C         0.45029   0.16161   0.33536   -0.137881           
         C         C         0.47096   0.18449   0.25554   0.065968  
         C         C         0.48951   0.18040   0.17353   -0.138853           
         C         C         0.48837   0.15506   0.17684   -0.103949           
         C         C         0.47391   0.21214   0.26021   0.060756  
         C         C         0.37580   0.88309   0.26517   0.064707  
         C         C         0.34855   0.85828   0.26018   0.051737  
         C         C         0.34497   0.83325   0.32510   -0.128926           
         C         C         0.31889   0.80969   0.32674   -0.140524           
         C         C         0.29564   0.81010   0.25906   0.065613  
         C         C         0.29958   0.83517   0.19100   -0.135508           
         C         C         0.32541   0.85888   0.19274   -0.101485           
         C         C         0.26798   0.78520   0.25865   0.061557  
         C         C         0.26454   0.75852   0.25841   -0.131099           
         C         C         0.24394   0.78728   0.25858   -0.129585           
         C         C         0.23838   0.73515   0.25810   -0.129667           
         C         C         0.45122   0.21579   0.28129   -0.128752           
         H         H         0.52227   0.04838   0.41708   0.099077  
         H         H         0.45308   0.01437   0.09807   0.102868  
         H         H         0.45237   0.05815   0.09098   0.109558  
         H         H         0.52198   0.09235   0.41082   0.122081  
         H         H         0.44377   0.99317   0.40486   0.099311  
         H         H         0.39637   0.95283   0.39878   0.122841  
         H         H         0.42106   0.91420   0.08037   0.108714  
         H         H         0.46797   0.95502   0.08403   0.097405  
         H         H         0.44853   0.08819   0.31491   0.066769  
         H         H         0.43303   0.11872   0.40157   0.103539  
         H         H         0.43601   0.16412   0.40234   0.106479  
         H         H         0.50472   0.19734   0.10442   0.109734  
         H         H         0.50291   0.15214   0.11460   0.115588  
         H         H         0.39366   0.88010   0.28974   0.065461  
         H         H         0.36273   0.83270   0.37908   0.106498  
         H         H         0.31628   0.79093   0.38482   0.108478  
         H         H         0.28214   0.83577   0.13328   0.108063  
         H         H         0.32841   0.87819   0.14024   0.116827  
         H         H         0.28261   0.75608   0.25708   0.103253  
         H         H         0.24589   0.80759   0.26059   0.103678  
         H         H         0.51809   0.23403   0.23280   0.103444  
         H         H         0.43071   0.19777   0.29104   0.104315  
         N         N         0.48871   0.10411   0.24255   -0.272019           
         N         N         0.37889   0.90749   0.24627   -0.277121           
         C         C         0.00093   0.48725   0.25369   -0.024627           
         C         C         0.97455   0.46038   0.25839   0.048255  
         C         C         0.97036   0.43826   0.16969   -0.114869           
         C         C         0.94535   0.41338   0.16719   -0.193014           
         C         C         0.92315   0.41007   0.25046   0.201547  
         C         C         0.92728   0.43172   0.34284   -0.172828           
         C         C         0.95273   0.45579   0.34942   -0.107354           
         C         C         0.02568   0.48389   0.25119   0.054459  
         C         C         0.02609   0.46169   0.33335   -0.120289           
         C         C         0.04838   0.45725   0.33143   -0.172453           
         C         C         0.07203   0.47570   0.25116   0.205082  
         C         C         0.07199   0.49787   0.16803   -0.185415           
         C         C         0.04914   0.50139   0.16725   -0.112974           
         C         C         0.89342   0.36262   0.27520   0.071400  
         C         C         0.86657   0.33739   0.25936   0.048041  
         C         C         0.86202   0.31339   0.34221   -0.125136           
         C         C         0.83625   0.28944   0.33587   -0.140534           
         C         C         0.81431   0.28866   0.24502   0.069302  
         C         C         0.81921   0.31263   0.15928   -0.139984           
         C         C         0.84486   0.33661   0.16599   -0.101819           
         C         C         0.78677   0.26351   0.24112   0.061536  
         C         C         0.11878   0.49105   0.28416   0.068470  
         C         C         0.14343   0.48873   0.27353   0.049451  
         C         C         0.16813   0.50728   0.35126   -0.126154           
         C         C         0.19155   0.50473   0.34676   -0.137789           
         C         C         0.19127   0.48401   0.26134   0.064673  
         C         C         0.16658   0.46587   0.18075   -0.136546           
         C         C         0.14302   0.46801   0.18749   -0.105289           
         C         C         0.21609   0.48134   0.25715   0.064524  
         C         C         0.24278   0.50449   0.27198   -0.131128           
         C         C         0.21401   0.45550   0.24054   -0.127828           
         C         C         0.26619   0.50191   0.27104   -0.131028           
         C         C         0.78370   0.23707   0.23442   -0.132496           
         H         H         0.95605   0.47204   0.42414   0.095354  
         H         H         0.98678   0.44084   0.09862   0.101625  
         H         H         0.94227   0.39696   0.09352   0.112563  
         H         H         0.91066   0.42890   0.41311   0.122750  
         H         H         0.00837   0.44756   0.39964   0.102227  
         H         H         0.04823   0.44012   0.39659   0.122728  
         H         H         0.08954   0.51155   0.09899   0.111268  
         H         H         0.04975   0.51871   0.10349   0.101104  
         H         H         0.91059   0.36017   0.32523   0.066827  
         H         H         0.87863   0.31396   0.41608   0.102276  
         H         H         0.83270   0.27138   0.40551   0.105006  
         H         H         0.80270   0.31203   0.08460   0.104657  
         H         H         0.84868   0.35502   0.09888   0.115830  
         H         H         0.12198   0.51072   0.32535   0.066498  
         H         H         0.16864   0.52326   0.41910   0.104985  
         H         H         0.21008   0.51842   0.41348   0.104060  
         H         H         0.16622   0.45047   0.10875   0.108345  
         H         H         0.12408   0.45417   0.12426   0.116505  
         H         H         0.24514   0.52481   0.28302   0.104101  
         H         H         0.19368   0.43715   0.23075   0.104951  
         H         H         0.76463   0.28560   0.25288   0.105839  
         H         H         0.80202   0.23514   0.22857   0.106221  
         N         N         0.89679   0.38665   0.23813   -0.272423           
         N         N         0.09432   0.47102   0.25017   -0.276165           
         C         C         0.48700   0.48784   0.75480   -0.022099           
         C         C         0.46009   0.48707   0.76024   0.047934  
         C         C         0.43667   0.46773   0.67563   -0.111590           
         C         C         0.41140   0.46692   0.67761   -0.195575           
         C         C         0.40890   0.48630   0.76062   0.204296  
         C         C         0.43201   0.50551   0.84744   -0.174709           
         C         C         0.45656   0.50508   0.84966   -0.110273           
         C         C         0.48374   0.45977   0.75121   0.050767  
         C         C         0.46237   0.43745   0.83193   -0.118615           
         C         C         0.45806   0.41078   0.82945   -0.173885           
         C         C         0.47599   0.40539   0.75122   0.203969  
         C         C         0.49739   0.42733   0.67013   -0.184808           
         C         C         0.50058   0.45360   0.66819   -0.110652           
         C         C         0.36187   0.46818   0.79850   0.070809  
         C         C         0.33627   0.46926   0.78187   0.046241  
         C         C         0.31363   0.45144   0.87067   -0.127919           
         C         C         0.28979   0.45348   0.86369   -0.138941           
         C         C         0.28770   0.47316   0.76594   0.068642  
         C         C         0.31009   0.49021   0.67244   -0.138097           
         C         C         0.33399   0.48844   0.68049   -0.103860           
         C         C         0.26305   0.47635   0.76366   0.062912  
         C         C         0.49109   0.37358   0.78633   0.069904  
         C         C         0.48796   0.34620   0.77494   0.048557  
         C         C         0.50691   0.33996   0.85326   -0.127353           
         C         C         0.50407   0.31390   0.84422   -0.142184           
         C         C         0.48253   0.29341   0.75452   0.066047  
         C         C         0.46373   0.29989   0.67541   -0.137329           
         C         C         0.46629   0.32574   0.68571   -0.103804           
         C         C         0.47989   0.26597   0.74387   0.064797  
         C         C         0.50345   0.26312   0.74175   -0.133012           
         C         C         0.45385   0.24174   0.73755   -0.130367           
         C         C         0.50110   0.23725   0.73632   -0.130165           
         C         C         0.23638   0.45357   0.78297   -0.128988           
         H         H         0.47416   0.51969   0.91790   0.097046  
         H         H         0.43836   0.45321   0.60580   0.102828  
         H         H         0.39379   0.45222   0.60848   0.109495  
         H         H         0.43009   0.51998   0.91661   0.123362  
         H         H         0.44893   0.44126   0.89854   0.102798  
         H         H         0.44159   0.39403   0.89345   0.123405  
         H         H         0.51057   0.42322   0.60273   0.111470  
         H         H         0.51687   0.47004   0.60297   0.100128  
         H         H         0.36069   0.44983   0.85837   0.068307  
         H         H         0.31519   0.43658   0.94974   0.103900  
         H         H         0.27303   0.44047   0.93886   0.103608  
         H         H         0.30831   0.50459   0.59061   0.105410  
         H         H         0.35121   0.50157   0.60815   0.114062  
         H         H         0.51129   0.38998   0.83009   0.065992  
         H         H         0.52354   0.35551   0.92428   0.105438  
         H         H         0.51825   0.30899   0.90975   0.108150  
         H         H         0.44752   0.28468   0.60125   0.108667  
         H         H         0.45206   0.33087   0.62257   0.116290  
         H         H         0.52383   0.28155   0.74318   0.103835  
         H         H         0.43527   0.24330   0.73938   0.106002  
         H         H         0.28608   0.52063   0.73255   0.105512  
         H         H         0.23365   0.43294   0.79635   0.105202  
         N         N         0.38486   0.48820   0.75084   -0.268097           
         N         N         0.47119   0.37836   0.74962   -0.275899           
         C         C         0.51272   -0.00038  0.76467   -0.023937           
         C         C         0.51297   0.97312   0.76848   0.047178  
         C         C         0.53156   0.97074   0.67794   -0.114954           
         C         C         0.53146   0.94596   0.66787   -0.192435           
         C         C         0.51212   0.92228   0.74767   0.202915  
         C         C         0.49390   0.92442   0.84198   -0.177499           
         C         C         0.49500   0.94954   0.85441   -0.105595           
         C         C         0.54100   0.02423   0.76375   0.059921  
         C         C         0.56282   0.02425   0.85359   -0.121332           
         C         C         0.58946   0.04692   0.85533   -0.164625           
         C         C         0.59530   0.07112   0.76992   0.202996  
         C         C         0.57399   0.07102   0.67541   -0.182105           
         C         C         0.54773   0.04795   0.67232   -0.112873           
         C         C         0.52877   0.89180   0.78151   0.071827  
         C         C         0.52741   0.86541   0.76237   0.044130  
         C         C         0.54578   0.85923   0.84745   -0.125895           
         C         C         0.54383   0.83360   0.83665   -0.140107           
         C         C         0.52380   0.81355   0.73843   0.066965  
         C         C         0.50579   0.82018   0.65105   -0.134157           
         C         C         0.50743   0.84556   0.66321   -0.106708           
         C         C         0.52157   0.78630   0.72873   0.060781  
         C         C         0.62545   0.11835   0.77989   0.061968  
         C         C         0.65263   0.14300   0.76920   0.051863  
         C         C         0.65626   0.16927   0.79296   -0.129521           
         C         C         0.68222   0.19284   0.78267   -0.137529           
         C         C         0.70563   0.19116   0.74915   0.068890  
         C         C         0.70161   0.16468   0.72314   -0.131406           
         C         C         0.67578   0.14118   0.73237   -0.100660           
         C         C         0.73333   0.21605   0.74254   0.053458  
         C         C         0.73924   0.24068   0.81167   -0.129728           
         C         C         0.75505   0.21604   0.66916   -0.128381           
         C         C         0.76539   0.26406   0.80700   -0.136368           
         C         C         0.54494   0.78317   0.75141   -0.131598           
         H         H         0.48084   0.95070   0.92820   0.097787  
         H         H         0.54589   0.98864   0.61103   0.099666  
         H         H         0.54526   0.94441   0.59193   0.112932  
         H         H         0.47940   0.90630   0.90709   0.121918  
         H         H         0.55863   0.00603   0.92326   0.101360  
         H         H         0.60588   0.04670   0.92712   0.122652  
         H         H         0.57846   0.08872   0.60003   0.107305  
         H         H         0.53161   0.04834   0.59996   0.099740  
         H         H         0.54671   0.90737   0.84796   0.070139  
         H         H         0.56106   0.87437   0.92585   0.104581  
         H         H         0.55732   0.82866   0.90892   0.107543  
         H         H         0.49087   0.80543   0.56998   0.106364  
         H         H         0.49368   0.85076   0.59526   0.116910  
         H         H         0.60790   0.12165   0.79334   0.064523  
         H         H         0.63856   0.17113   0.82042   0.105440  
         H         H         0.68431   0.21290   0.79966   0.104338  
         H         H         0.71908   0.16245   0.69620   0.106817  
         H         H         0.67281   0.12088   0.71150   0.115438  
         H         H         0.72337   0.24145   0.87325   0.101875  
         H         H         0.75120   0.19789   0.60902   0.105063  
         H         H         0.47744   0.76416   0.68213   0.105209  
         H         H         0.56511   0.80133   0.77154   0.104426  
         N         N         0.50945   0.89636   0.72872   -0.270550           
         N         N         0.62209   0.09379   0.77559   -0.278899           
         C         C         0.00057   0.51342   0.75043   -0.022142           
         C         C         0.02703   0.54018   0.75816   0.054860  
         C         C         0.03033   0.56338   0.67058   -0.118286           
         C         C         0.05532   0.58827   0.67210   -0.190128           
         C         C         0.07821   0.59073   0.76065   0.203348  
         C         C         0.07505   0.56786   0.85093   -0.164880           
         C         C         0.04981   0.54359   0.85122   -0.113491           
         C         C         0.97575   0.51679   0.74342   0.053694  
         C         C         0.97580   0.53713   0.83225   -0.120589           
         C         C         0.95320   0.54105   0.83372   -0.167093           
         C         C         0.92879   0.52388   0.74886   0.203884  
         C         C         0.92867   0.50410   0.65563   -0.185269           
         C         C         0.95179   0.50107   0.65209   -0.107695           
         C         C         0.10716   0.63837   0.77450   0.065519  
         C         C         0.13390   0.66351   0.75897   0.045585  
         C         C         0.13881   0.68810   0.82325   -0.128616           
         C         C         0.16472   0.71183   0.81608   -0.140395           
         C         C         0.18632   0.71175   0.74222   0.067110  
         C         C         0.18098   0.68718   0.67434   -0.135993           
         C         C         0.15529   0.66342   0.68286   -0.105247           
         C         C         0.21394   0.73663   0.73683   0.060354  
         C         C         0.88187   0.50683   0.77674   0.065352  
         C         C         0.85712   0.50943   0.77128   0.050067  
         C         C         0.83240   0.48831   0.83230   -0.127389           
         C         C         0.80893   0.49097   0.83048   -0.138092           
         C         C         0.80911   0.51451   0.76406   0.065969  
         C         C         0.83384   0.53531   0.69993   -0.134736           
         C         C         0.85743   0.53300   0.70466   -0.099870           
         C         C         0.78435   0.51749   0.76088   0.062943  
         C         C         0.75745   0.49442   0.75723   -0.130551           
         C         C         0.78675   0.54376   0.76070   -0.129888           
         C         C         0.73426   0.49749   0.75284   -0.130414           
         C         C         0.21710   0.76319   0.72364   -0.131691           
         H         H         0.04755   0.52610   0.92051   0.098871  
         H         H         0.01307   0.56173   0.59899   0.105019  
         H         H         0.05778   0.60564   0.59925   0.107608  
         H         H         0.09241   0.56980   0.92295   0.122211  
         H         H         0.99407   0.54994   0.90287   0.098851  
         H         H         0.95366   0.55649   0.90584   0.123411  
         H         H         0.91065   0.49188   0.58154   0.107129  
         H         H         0.95108   0.48584   0.57809   0.100294  
         H         H         0.08978   0.64079   0.80648   0.066621  
         H         H         0.12245   0.68818   0.88406   0.104679  
         H         H         0.16859   0.73035   0.87246   0.109885  
         H         H         0.19707   0.68724   0.61042   0.108364  
         H         H         0.15102   0.64454   0.62905   0.117474  
         H         H         0.87893   0.48612   0.80397   0.066004  
         H         H         0.83184   0.46998   0.88470   0.105470  
         H         H         0.79038   0.47496   0.88420   0.105296  
         H         H         0.83427   0.55321   0.64258   0.106765  
         H         H         0.87642   0.54901   0.65462   0.116640  
         H         H         0.75469   0.47376   0.75632   0.103677  
         H         H         0.80721   0.56203   0.76611   0.105532  
         H         H         0.23611   0.71424   0.75798   0.104382  
         H         H         0.19878   0.76530   0.71283   0.102391  
         N         N         0.10429   0.61439   0.75562   -0.274665           
         N         N         0.90609   0.52782   0.75411   -0.272859           
         C         C         0.51230   0.51232   0.75436   -0.030390           
         C         C         0.53927   0.51288   0.76063   0.059343  
         C         C         0.56124   0.53239   0.67211   -0.119824           
         C         C         0.58634   0.53284   0.67100   -0.188452           
         C         C         0.59044   0.51333   0.75878   0.201507  
         C         C         0.56878   0.49391   0.84933   -0.162669           
         C         C         0.54427   0.49433   0.85205   -0.112512           
         C         C         0.51548   0.54047   0.74857   0.057584  
         C         C         0.53808   0.56213   0.82788   -0.123399           
         C         C         0.54244   0.58886   0.82505   -0.167460           
         C         C         0.52378   0.59522   0.74446   0.203433  
         C         C         0.50127   0.57400   0.66350   -0.184635           
         C         C         0.49748   0.54751   0.66559   -0.113321           
         C         C         0.63852   0.53306   0.76181   0.063170  
         C         C         0.66355   0.53133   0.75014   0.049561  
         C         C         0.68921   0.55260   0.80565   -0.128649           
         C         C         0.71278   0.55014   0.80668   -0.139874           
         C         C         0.71185   0.52676   0.74787   0.066299  
         C         C         0.68623   0.50609   0.68601   -0.133609           
         C         C         0.66256   0.50814   0.68846   -0.105079           
         C         C         0.73663   0.52376   0.75186   0.059485  
         C         C         0.50834   0.62626   0.76416   0.065256  
         C         C         0.51083   0.65349   0.75030   0.049881  
         C         C         0.48983   0.65722   0.80452   -0.129139           
         C         C         0.49169   0.68299   0.79442   -0.141274           
         C         C         0.51455   0.70588   0.72830   0.065686  
         C         C         0.53543   0.70195   0.67266   -0.134801           
         C         C         0.53372   0.67632   0.68369   -0.099236           
         C         C         0.51696   0.73337   0.72234   0.063332  
         C         C         0.49364   0.73654   0.69689   -0.131737           
         C         C         0.54272   0.75734   0.74756   -0.130842           
         C         C         0.49591   0.76242   0.69947   -0.130086           
         C         C         0.76355   0.54682   0.75620   -0.129467           
         H         H         0.52795   0.47930   0.92278   0.098267  
         H         H         0.55829   0.54727   0.60133   0.100996  
         H         H         0.60245   0.54746   0.59637   0.108669  
         H         H         0.57191   0.47916   0.92062   0.122231  
         H         H         0.55265   0.55775   0.89263   0.101052  
         H         H         0.55980   0.60499   0.88906   0.122898  
         H         H         0.48726   0.57873   0.59469   0.106218  
         H         H         0.47967   0.53175   0.60387   0.103594  
         H         H         0.64138   0.55358   0.78242   0.065018  
         H         H         0.69040   0.57071   0.85373   0.105837  
         H         H         0.73199   0.56615   0.85838   0.109695  
         H         H         0.68509   0.48848   0.63210   0.108488  
         H         H         0.64290   0.49213   0.64078   0.114981  
         H         H         0.48806   0.60905   0.79743   0.062789  
         H         H         0.47230   0.63977   0.85861   0.105081  
         H         H         0.47579   0.68573   0.84239   0.108830  
         H         H         0.55279   0.71924   0.61687   0.107071  
         H         H         0.54975   0.67329   0.63977   0.116910  
         H         H         0.47355   0.71845   0.67356   0.102861  
         H         H         0.56110   0.75550   0.76813   0.105666  
         H         H         0.71384   0.47915   0.75150   0.102573  
         H         H         0.76636   0.56751   0.75433   0.102938  
         N         N         0.61428   0.51130   0.75432   -0.278574           
         N         N         0.52866   0.62229   0.74196   -0.274527           
         C         C         0.48868   0.00118   0.75740   -0.026760           
         C         C         0.48873   0.02783   0.75811   0.056818  
         C         C         0.46930   0.03178   0.66718   -0.116364           
         C         C         0.46895   0.05649   0.66566   -0.190677           
         C         C         0.48874   0.07879   0.75273   0.201132  
         C         C         0.50835   0.07518   0.84369   -0.164099           
         C         C         0.50768   0.05008   0.84809   -0.116248           
         C         C         0.46033   0.97662   0.74953   0.052145  
         C         C         0.43868   0.97679   0.82348   -0.118906           
         C         C         0.41180   0.95457   0.81913   -0.171236           
         C         C         0.40551   0.93026   0.74547   0.204813  
         C         C         0.42679   0.92982   0.66999   -0.187764           
         C         C         0.45326   0.95268   0.66977   -0.109475           
         C         C         0.46916   0.10691   0.76033   0.064263  
         C         C         0.47033   0.13358   0.74611   0.048928  
         C         C         0.44910   0.13653   0.80409   -0.130395           
         C         C         0.45052   0.16210   0.79953   -0.138358           
         C         C         0.47293   0.18554   0.73360   0.065028  
         C         C         0.49365   0.18215   0.67061   -0.134308           
         C         C         0.49259   0.15682   0.67783   -0.101380           
         C         C         0.47508   0.21292   0.73317   0.058935  
         C         C         0.37435   0.88346   0.77701   0.070646  
         C         C         0.34721   0.85854   0.76212   0.048874  
         C         C         0.34212   0.83452   0.84702   -0.126624           
         C         C         0.31632   0.81064   0.83860   -0.141355           
         C         C         0.29487   0.80979   0.74235   0.064401  
         C         C         0.30031   0.83371   0.65438   -0.137534           
         C         C         0.32590   0.85775   0.66472   -0.104278           
         C         C         0.26731   0.78469   0.73629   0.064353  
         C         C         0.26415   0.75809   0.74729   -0.131620           
         C         C         0.24319   0.78668   0.72287   -0.130639           
         C         C         0.23803   0.73458   0.74704   -0.131411           
         C         C         0.45151   0.21584   0.73275   -0.129280           
         H         H         0.52271   0.04754   0.91944   0.099259  
         H         H         0.45434   0.01519   0.59518   0.102335  
         H         H         0.45422   0.05919   0.59079   0.107045  
         H         H         0.52342   0.09210   0.91368   0.121776  
         H         H         0.44324   0.99487   0.88659   0.099847  
         H         H         0.39573   0.95525   0.87923   0.122341  
         H         H         0.42195   0.91178   0.60538   0.110811  
         H         H         0.46902   0.95183   0.60855   0.101958  
         H         H         0.44905   0.08887   0.78847   0.065557  
         H         H         0.43188   0.11871   0.85787   0.105143  
         H         H         0.43459   0.16419   0.85223   0.109500  
         H         H         0.51044   0.19962   0.61230   0.107127  
         H         H         0.50860   0.15435   0.62905   0.115528  
         H         H         0.39135   0.88026   0.82254   0.063157  
         H         H         0.35835   0.83498   0.92392   0.103723  
         H         H         0.31235   0.79271   0.91073   0.108113  
         H         H         0.28436   0.83303   0.57438   0.107328  
         H         H         0.33005   0.87607   0.59566   0.117421  
         H         H         0.28242   0.75589   0.75559   0.104365  
         H         H         0.24510   0.80701   0.71524   0.106225  
         H         H         0.51974   0.23574   0.73751   0.104005  
         H         H         0.43104   0.19755   0.72800   0.102419  
         N         N         0.49079   0.10474   0.74627   -0.276453           
         N         N         0.37843   0.90787   0.74190   -0.278813           
         C         C         -0.00057  0.48803   0.75413   -0.027017           
         C         C         0.97306   0.46120   0.75893   0.057132  
         C         C         0.96992   0.43870   0.67738   -0.114406           
         C         C         0.94556   0.41329   0.67778   -0.187341           
         C         C         0.92283   0.40949   0.75829   0.199033  
         C         C         0.92571   0.43181   0.84024   -0.160988           
         C         C         0.95041   0.45669   0.84267   -0.114614           
         C         C         0.02437   0.48484   0.75404   0.055137  
         C         C         0.02543   0.46328   0.83966   -0.119817           
         C         C         0.04834   0.45976   0.84151   -0.167864           
         C         C         0.07188   0.47831   0.76040   0.203462  
         C         C         0.07102   0.49971   0.67267   -0.184095           
         C         C         0.04769   0.50248   0.66953   -0.114106           
         C         C         0.89485   0.36133   0.75622   0.062282  
         C         C         0.86776   0.33636   0.74375   0.049374  
         C         C         0.86456   0.31057   0.79102   -0.129931           
         C         C         0.83850   0.28688   0.78811   -0.139130           
         C         C         0.81500   0.28836   0.73666   0.070702  
         C         C         0.81842   0.31414   0.68583   -0.136495           
         C         C         0.84432   0.33776   0.68893   -0.101516           
         C         C         0.78714   0.26366   0.73725   0.061574  
         C         C         0.11921   0.49464   0.78536   0.065396  
         C         C         0.14375   0.49194   0.77644   0.049713  
         C         C         0.16955   0.51262   0.83438   -0.128285           
         C         C         0.19291   0.50986   0.83161   -0.138651           
         C         C         0.19143   0.48656   0.76816   0.066599  
         C         C         0.16563   0.46626   0.70650   -0.135472           
         C         C         0.14225   0.46879   0.71102   -0.103832           
         C         C         0.21599   0.48329   0.76594   0.061152  
         C         C         0.24269   0.50609   0.74730   -0.133702           
         C         C         0.21342   0.45698   0.78354   -0.131755           
         C         C         0.26563   0.50266   0.74548   -0.130507           
         C         C         0.78145   0.23914   0.66885   -0.135524           
         H         H         0.95233   0.47344   0.90823   0.100027  
         H         H         0.98675   0.44155   0.60886   0.103033  
         H         H         0.94343   0.39682   0.60768   0.107599  
         H         H         0.90846   0.42873   0.90589   0.120915  
         H         H         0.00781   0.44900   0.90616   0.100048  
         H         H         0.04877   0.44324   0.91037   0.123072  
         H         H         0.08840   0.51342   0.60265   0.110798  
         H         H         0.04758   0.51924   0.60318   0.100640  
         H         H         0.91295   0.35847   0.77119   0.064857  
         H         H         0.88260   0.30945   0.83489   0.104373  
         H         H         0.83604   0.26717   0.83033   0.109411  
         H         H         0.80042   0.31514   0.64032   0.109203  
         H         H         0.84715   0.35768   0.64835   0.113998  
         H         H         0.12285   0.51506   0.81586   0.065512  
         H         H         0.17105   0.53065   0.88541   0.105454  
         H         H         0.21240   0.52551   0.88289   0.106849  
         H         H         0.16425   0.44874   0.65029   0.109976  
         H         H         0.12251   0.45324   0.66173   0.116378  
         H         H         0.24543   0.52672   0.73263   0.102904  
         H         H         0.19308   0.43905   0.80057   0.105366  
         H         H         0.76933   0.28270   0.86234   0.105314  
         H         H         0.79776   0.23856   0.61071   0.104716  
         N         N         0.89703   0.38540   0.75479   -0.282710           
         N         N         0.09452   0.47410   0.76261   -0.276036 

