
##########################################################################
#               Crystallographic Information Format file
#               Produced by PyCifRW module
#
#  This is a CIF file.  CIF has been adopted by the International
#  Union of Crystallography as the standard for data archiving and
#  transmission.
#
#  For information on this file format, follow the CIF links at
#  http://www.iucr.org
##########################################################################

data_image0

_cell_length_a                          24.3498
_cell_length_b                          19.6048
_cell_length_c                          27.9993
_cell_angle_alpha                       90.1677
_cell_angle_beta                        89.9459
_cell_angle_gamma                       89.8342
_symmetry_space_group_name_H-M          'P 1'
_space_group_name_Hall                  'P 1'
loop_
  _atom_site_type_symbol
  _atom_site_label
  _atom_site_fract_x
  _atom_site_fract_y
  _atom_site_fract_z
  _atom_site_charge
         C         C         0.96988   0.08230   0.23798   0.199280  
         C         C         0.96454   0.08555   0.28835   -0.160554           
         C         C         0.00952   0.07295   0.31656   -0.082425           
         C         C         0.06077   0.05810   0.29533   0.030653  
         C         C         0.10926   0.05556   0.32392   -0.123900           
         C         C         0.15962   0.04943   0.30306   -0.142694           
         C         C         0.16390   0.03600   0.25312   0.034459  
         C         C         0.21592   0.02236   0.23290   -0.088402           
         C         C         0.21985   0.00573   0.18519   -0.193321           
         C         C         0.17122   0.00259   0.15763   0.207791  
         C         C         0.11659   0.03405   0.22280   0.121503  
         C         C         0.06295   0.05242   0.24430   0.122146  
         C         C         0.78524   0.08716   0.11269   0.084493  
         C         C         0.17843   0.98713   0.10532   0.052981  
         C         C         0.18622   0.92072   0.08774   -0.125836           
         C         C         0.19521   0.90897   0.03898   -0.111546           
         C         C         0.19533   0.96307   0.00605   0.051373  
         C         C         0.18960   0.02966   0.02430   -0.101726           
         C         C         0.18250   0.04160   0.07293   -0.133311           
         C         C         0.19260   0.94872   0.95416   0.087747  
         C         C         0.02819   0.77275   0.14227   0.202734  
         C         C         0.06515   0.71823   0.13374   -0.186659           
         C         C         0.09093   0.71408   0.08997   -0.092824           
         C         C         0.08332   0.76710   0.05649   0.031091  
         C         C         0.09937   0.76041   0.00750   -0.143947           
         C         C         0.09018   0.81315   0.97666   -0.134202           
         C         C         0.07279   0.87811   0.99452   0.026880  
         C         C         0.07134   0.93550   0.96483   -0.082323           
         C         C         0.06759   -0.00064  0.98484   -0.165687           
         C         C         0.06166   0.00647   0.03454   0.200870  
         C         C         0.06029   0.88877   0.04381   0.127106  
         C         C         0.05650   0.82767   0.07336   0.129288  
         C         C         0.87307   0.77246   0.29656   0.079147  
         C         C         0.06062   0.26752   0.13047   0.072254  
         N         N         0.01793   0.06525   0.21700   -0.289535           
         N         N         0.12142   0.01624   0.17591   -0.276203           
         N         N         0.02689   0.82812   0.11428   -0.293581           
         N         N         0.05454   0.95180   0.06311   -0.293416           
         N         N         0.74520   0.04598   0.12256   -0.299788           
         N         N         0.17560   0.99457   0.92490   -0.257574           
         N         N         0.89147   0.77008   0.33976   -0.260512           
         N         N         0.04784   0.32831   0.11598   -0.293762           
         C         C         0.01521   0.82969   0.80663   0.044065  
         C         C         0.99732   0.80771   0.76136   -0.129056           
         C         C         0.03454   0.79930   0.72434   -0.097311           
         C         C         0.09117   0.80873   0.73197   0.054669  
         C         C         0.10951   0.82196   0.77865   -0.126715           
         C         C         0.07188   0.83421   0.81523   -0.119646           
         C         C         0.28561   0.57232   0.57848   0.203818  
         C         C         0.30413   0.50544   0.58796   -0.159174           
         C         C         0.32596   0.46428   0.55214   -0.131037           
         C         C         0.33177   0.48830   0.50511   0.057615  
         C         C         0.32066   0.55805   0.49743   -0.125188           
         C         C         0.29810   0.59947   0.53315   -0.184969           
         C         C         0.34382   0.44058   0.46556   0.050981  
         C         C         0.31681   0.44793   0.42136   -0.127312           
         C         C         0.32692   0.40365   0.38341   -0.173825           
         C         C         0.36656   0.35127   0.38744   0.204585  
         C         C         0.39099   0.34118   0.43258   -0.161059           
         C         C         0.37972   0.38445   0.47075   -0.140342           
         C         C         0.00101   0.44206   0.83593   0.201062  
         C         C         0.97567   0.44815   0.79092   -0.170667           
         C         C         0.00628   0.46596   0.75112   -0.113524           
         C         C         0.06315   0.47937   0.75412   0.063057  
         C         C         0.08540   0.48543   0.80036   -0.145828           
         C         C         0.05448   0.46861   0.84060   -0.146653           
         C         C         0.09543   0.48370   0.70959   0.047905  
         C         C         0.06834   0.50252   0.66741   -0.104010           
         C         C         0.09614   0.50732   0.62476   -0.160246           
         C         C         0.15144   0.48787   0.61938   0.198201  
         C         C         0.17915   0.46708   0.66115   -0.195832           
         C         C         0.15153   0.46673   0.70529   -0.136147           
         C         C         0.06326   0.07535   0.05651   0.040475  
         C         C         0.05430   0.08203   0.10555   -0.102856           
         C         C         0.05894   0.14510   0.12778   -0.124508           
         C         C         0.06851   0.20545   0.10213   0.052131  
         C         C         0.07784   0.19936   0.05251   -0.129065           
         C         C         0.07616   0.13537   0.03067   -0.132057           
         C         C         0.82729   0.10571   0.14743   0.050211  
         C         C         0.82122   0.10010   0.19727   -0.119550           
         C         C         0.86721   0.09709   0.22659   -0.124355           
         C         C         0.92110   0.09670   0.20756   0.047857  
         C         C         0.92643   0.10862   0.15832   -0.093235           
         C         C         0.88055   0.11516   0.12921   -0.102951           
         H         H         0.92579   0.09989   0.30480   0.116539  
         H         H         0.00672   0.07637   0.35530   0.117684  
         H         H         0.10549   0.06194   0.36244   0.109342  
         H         H         0.19731   0.05482   0.32360   0.103234  
         H         H         0.25215   0.02479   0.25569   0.111651  
         H         H         0.25929   0.99544   0.16832   0.117384  
         H         H         0.79424   0.10208   0.07572   0.060616  
         H         H         0.18428   0.87763   0.11209   0.114087  
         H         H         0.19977   0.85677   0.02615   0.102429  
         H         H         0.18893   0.07187   -0.00073  0.093544  
         H         H         0.17747   0.09356   0.08598   0.110544  
         H         H         0.19978   0.89541   0.94335   0.068565  
         H         H         0.06969   0.67837   0.16018   0.105670  
         H         H         0.11585   0.66982   0.08030   0.111248  
         H         H         0.11674   0.71206   0.99546   0.112824  
         H         H         0.09907   0.80840   0.93866   0.111099  
         H         H         0.07552   0.92879   0.92648   0.105479  
         H         H         0.06920   0.04446   0.96262   0.110428  
         H         H         0.83085   0.78849   0.28788   0.061782  
         H         H         0.05899   0.25650   0.16894   0.056653  
         H         H         0.95355   0.80173   0.75464   0.103421  
         H         H         0.02118   0.78788   0.68821   0.102993  
         H         H         0.15321   0.82760   0.78563   0.102462  
         H         H         0.08615   0.84958   0.85045   0.104790  
         H         H         0.29678   0.48406   0.62308   0.109341  
         H         H         0.33527   0.41113   0.55998   0.098746  
         H         H         0.32792   0.57930   0.46212   0.108271  
         H         H         0.28789   0.65242   0.52539   0.111028  
         H         H         0.28716   0.48906   0.41710   0.091104  
         H         H         0.30713   0.41259   0.34916   0.097801  
         H         H         0.42206   0.30150   0.43535   0.105872  
         H         H         0.40160   0.37740   0.50430   0.097052  
         H         H         0.93265   0.43477   0.78628   0.105344  
         H         H         0.98657   0.46465   0.71632   0.110850  
         H         H         0.12798   0.50110   0.80483   0.094582  
         H         H         0.07290   0.46917   0.87590   0.114710  
         H         H         0.02527   0.51695   0.66729   0.111056  
         H         H         0.07396   0.52785   0.59468   0.107833  
         H         H         0.22223   0.45254   0.65947   0.105483  
         H         H         0.17390   0.45032   0.73693   0.088530  
         H         H         0.04506   0.03737   0.12677   0.107067  
         H         H         0.05229   0.14723   0.16619   0.098678  
         H         H         0.08634   0.24482   0.03152   0.112020  
         H         H         0.08496   0.13214   0.99264   0.094083  
         H         H         0.78028   0.09463   0.21239   0.107168  
         H         H         0.86070   0.09088   0.26472   0.100696  
         H         H         0.96707   0.11092   0.14264   0.105507  
         H         H         0.88586   0.12150   0.09088   0.097400  
         C         C         0.48672   0.62736   0.21941   0.194089  
         C         C         0.48408   0.64149   0.26907   -0.158625           
         C         C         0.52570   0.61905   0.29813   -0.094844           
         C         C         0.57066   0.58291   0.27854   0.031768  
         C         C         0.61136   0.55475   0.30948   -0.124156           
         C         C         0.65177   0.51363   0.29177   -0.137076           
         C         C         0.65534   0.50099   0.24167   0.029709  
         C         C         0.69638   0.45672   0.22360   -0.096489           
         C         C         0.70151   0.44676   0.17517   -0.184142           
         C         C         0.66706   0.48440   0.14395   0.200644  
         C         C         0.61879   0.53284   0.20820   0.129252  
         C         C         0.57213   0.57291   0.22775   0.120729  
         C         C         0.29643   0.63685   0.09902   0.083357  
         C         C         0.67629   0.47576   0.09156   0.041421  
         C         C         0.68803   0.41024   0.07334   -0.133119           
         C         C         0.69282   0.39851   0.02440   -0.114640           
         C         C         0.68491   0.45143   0.99132   0.053419  
         C         C         0.67779   0.51781   0.00980   -0.104348           
         C         C         0.67392   0.52996   0.05876   -0.122627           
         C         C         0.67421   0.43228   0.94110   0.084228  
         C         C         0.52183   0.33910   0.14965   0.198725  
         C         C         0.55394   0.28263   0.13461   -0.187137           
         C         C         0.57286   0.28286   0.08833   -0.098740           
         C         C         0.56453   0.34112   0.05970   0.032639  
         C         C         0.57181   0.33751   0.00936   -0.145210           
         C         C         0.56473   0.39454   0.98249   -0.118023           
         C         C         0.55788   0.45955   0.00490   0.040250  
         C         C         0.55917   0.51970   0.97760   -0.076832           
         C         C         0.55738   0.58207   -0.00031  -0.182347           
         C         C         0.55304   0.58544   0.04986   0.193768  
         C         C         0.54979   0.46663   0.05538   0.129635  
         C         C         0.54544   0.40241   0.08255   0.135116  
         C         C         0.37144   0.31648   0.30608   0.081794  
         C         C         0.55422   0.84783   0.14337   0.060082  
         N         N         0.53020   0.59542   0.19950   -0.283953           
         N         N         0.62725   0.52598   0.16033   -0.269655           
         N         N         0.52069   0.39870   0.12609   -0.296527           
         N         N         0.54670   0.52896   0.07688   -0.291751           
         N         N         0.24965   0.61156   0.11239   -0.301872           
         N         N         0.64748   0.47136   0.91244   -0.253051           
         N         N         0.39167   0.31965   0.34859   -0.261545           
         N         N         0.52085   0.89696   0.13202   -0.278471           
         C         C         0.51102   0.27359   0.81792   0.043049  
         C         C         0.49499   0.25179   0.77210   -0.119445           
         C         C         0.53287   0.24795   0.73518   -0.091958           
         C         C         0.58862   0.26269   0.74334   0.052903  
         C         C         0.60559   0.27781   0.79025   -0.127473           
         C         C         0.56712   0.28468   0.82681   -0.116402           
         C         C         0.78848   0.00312   0.58240   0.200022  
         C         C         0.79938   0.93286   0.58761   -0.164552           
         C         C         0.81756   0.89358   0.54916   -0.130580           
         C         C         0.82697   0.92294   0.50400   0.060232  
         C         C         0.82134   0.99448   0.50053   -0.119344           
         C         C         0.80250   0.03388   0.53866   -0.179712           
         C         C         0.84020   0.88043   0.46184   0.046941  
         C         C         0.82352   0.90080   0.41580   -0.130109           
         C         C         0.83580   0.86211   0.37541   -0.187751           
         C         C         0.86696   0.80138   0.37889   0.203561  
         C         C         0.88271   0.78006   0.42510   -0.161809           
         C         C         0.86912   0.81809   0.46545   -0.130035           
         C         C         0.47740   0.87680   0.84871   0.206441  
         C         C         0.44951   0.88266   0.80481   -0.189429           
         C         C         0.47662   0.90654   0.76440   -0.114819           
         C         C         0.53271   0.92491   0.76554   0.060003  
         C         C         0.55696   0.92860   0.81112   -0.127032           
         C         C         0.52978   0.90644   0.85205   -0.156827           
         C         C         0.56395   0.93587   0.72080   0.043614  
         C         C         0.53603   0.94218   0.67721   -0.092723           
         C         C         0.56343   0.95013   0.63437   -0.181720           
         C         C         0.62135   0.95185   0.63144   0.202306  
         C         C         0.65016   0.94376   0.67468   -0.191853           
         C         C         0.62179   0.93632   0.71797   -0.122452           
         C         C         0.55822   0.65461   0.07162   0.035861  
         C         C         0.58333   0.66415   0.11624   -0.114304           
         C         C         0.58607   0.72892   0.13680   -0.130552           
         C         C         0.56327   0.78674   0.11424   0.053599  
         C         C         0.54175   0.77797   0.06790   -0.113794           
         C         C         0.53984   0.71354   0.04705   -0.141230           
         C         C         0.34157   0.65260   0.13174   0.057206  
         C         C         0.33753   0.64667   0.18177   -0.110451           
         C         C         0.38455   0.64341   0.20978   -0.118982           
         C         C         0.43785   0.64453   0.18944   0.049325  
         C         C         0.44156   0.65779   0.14030   -0.093454           
         C         C         0.39438   0.66256   0.11233   -0.109806           
         H         H         0.44955   0.66989   0.28372   0.116331  
         H         H         0.52378   0.62699   0.33660   0.113529  
         H         H         0.60828   0.56437   0.34771   0.116741  
         H         H         0.68251   0.49163   0.31540   0.101515  
         H         H         0.72379   0.43124   0.24864   0.115202  
         H         H         0.73275   0.41291   0.16048   0.112039  
         H         H         0.30770   0.63910   0.06100   0.061704  
         H         H         0.69057   0.36721   0.09765   0.104491  
         H         H         0.69934   0.34668   0.01147   0.103991  
         H         H         0.67266   0.55979   0.98502   0.094564  
         H         H         0.66687   0.58150   0.07189   0.113307  
         H         H         0.68446   0.37924   0.93159   0.067247  
         H         H         0.55810   0.23837   0.15767   0.112621  
         H         H         0.59202   0.23786   0.07253   0.115007  
         H         H         0.58092   0.28836   0.99297   0.111548  
         H         H         0.56637   0.39140   0.94388   0.111453  
         H         H         0.56393   0.51720   0.93929   0.108742  
         H         H         0.56069   0.62849   0.97881   0.109531  
         H         H         0.32795   0.32675   0.29794   0.066385  
         H         H         0.57120   0.84340   0.17961   0.053990  
         H         H         0.45192   0.24136   0.76495   0.108794  
         H         H         0.52010   0.23678   0.69881   0.104412  
         H         H         0.64867   0.28834   0.79735   0.099812  
         H         H         0.57989   0.30069   0.86228   0.108038  
         H         H         0.79012   0.90916   0.62177   0.112775  
         H         H         0.82276   0.83884   0.55374   0.107338  
         H         H         0.83159   0.01950   0.46708   0.106864  
         H         H         0.79759   0.08874   0.53450   0.112174  
         H         H         0.80036   0.94798   0.41197   0.097506  
         H         H         0.82445   0.88073   0.34017   0.099278  
         H         H         0.90840   0.73478   0.42804   0.114817  
         H         H         0.88388   0.80101   0.50013   0.101092  
         H         H         0.40731   0.86495   0.80186   0.110214  
         H         H         0.45465   0.90655   0.73061   0.108439  
         H         H         0.59893   0.94679   0.81470   0.091704  
         H         H         0.55070   0.90540   0.88631   0.116997  
         H         H         0.49151   0.94195   0.67554   0.108177  
         H         H         0.53754   0.95500   0.60314   0.105532  
         H         H         0.69477   0.94678   0.67420   0.102789  
         H         H         0.64596   0.93043   0.75040   0.086969  
         H         H         0.59859   0.61904   0.13455   0.101839  
         H         H         0.60345   0.73448   0.17247   0.104577  
         H         H         0.52494   0.82220   0.04955   0.117178  
         H         H         0.52145   0.70860   0.01186   0.096879  
         H         H         0.29716   0.64011   0.19779   0.106458  
         H         H         0.37993   0.63435   0.24787   0.103707  
         H         H         0.48179   0.66146   0.12389   0.103770  
         H         H         0.39816   0.67084   0.07401   0.093995  
         C         C         0.01548   0.13408   0.77916   0.196373  
         C         C         0.01810   0.14849   0.72962   -0.156974           
         C         C         0.97545   0.12879   0.70078   -0.096321           
         C         C         0.92965   0.09502   0.72049   0.032557  
         C         C         0.88743   0.07039   0.68971   -0.124485           
         C         C         0.84631   0.03069   0.70723   -0.140392           
         C         C         0.84381   0.01587   0.75705   0.033910  
         C         C         0.80253   0.97203   0.77462   -0.097033           
         C         C         0.79836   0.95969   0.82282   -0.186705           
         C         C         0.83413   0.99450   0.85459   0.201774  
         C         C         0.88172   0.04463   0.79069   0.126668  
         C         C         0.92868   0.08376   0.77114   0.118244  
         C         C         0.20613   0.13453   0.89920   0.083698  
         C         C         0.82563   0.98375   0.90699   0.040853  
         C         C         0.81273   0.91796   0.92377   -0.135108           
         C         C         0.80855   0.90423   0.97250   -0.114874           
         C         C         0.81792   0.95517   0.00693   0.052871  
         C         C         0.82610   0.02207   0.99000   -0.105748           
         C         C         0.82968   0.03627   0.94129   -0.122361           
         C         C         0.82855   0.93329   0.05665   0.086471  
         C         C         0.97635   0.84255   0.84648   0.198902  
         C         C         0.94269   0.78718   0.86032   -0.186990           
         C         C         0.92490   0.78601   0.90696   -0.100266           
         C         C         0.93537   0.84247   0.93700   0.033487  
         C         C         0.92917   0.83730   0.98736   -0.145711           
         C         C         0.93735   0.89325   0.01526   -0.120147           
         C         C         0.94472   0.95887   0.99414   0.039303  
         C         C         0.94422   0.01827   0.02252   -0.077260           
         C         C         0.94774   0.08122   0.00169   -0.183645           
         C         C         0.95259   0.08592   0.95164   0.197537  
         C         C         0.95275   0.96726   0.94381   0.129373  
         C         C         0.95534   0.90392   0.91536   0.134535  
         C         C         0.12868   0.81656   0.69158   0.080412  
         C         C         0.94964   0.35133   0.86328   0.061112  
         N         N         0.97146   0.10397   0.79917   -0.282794           
         N         N         0.87440   0.03536   0.83854   -0.269400           
         N         N         0.97929   0.90096   0.87150   -0.293024           
         N         N         0.95725   0.03009   0.92346   -0.291535           
         N         N         0.25137   0.10492   0.88562   -0.300779           
         N         N         0.85565   0.97056   0.08623   -0.253007           
         N         N         0.10899   0.82062   0.64891   -0.260086           
         N         N         0.98204   0.40147   0.87418   -0.278438           
         C         C         0.98732   0.76624   0.18121   0.044004  
         C         C         0.00310   0.74454   0.22706   -0.119399           
         C         C         0.96548   0.74339   0.26421   -0.095346           
         C         C         0.91009   0.76055   0.25624   0.053163  
         C         C         0.89314   0.77525   0.20928   -0.126803           
         C         C         0.93148   0.77953   0.17246   -0.119256           
         C         C         0.71145   0.50001   0.41824   0.201086  
         C         C         0.69978   0.43006   0.41230   -0.165191           
         C         C         0.68187   0.39038   0.45042   -0.130872           
         C         C         0.67377   0.41909   0.49609   0.060570  
         C         C         0.68009   0.49040   0.50044   -0.122215           
         C         C         0.69835   0.53023   0.46257   -0.176290           
         C         C         0.66110   0.37639   0.53802   0.049065  
         C         C         0.67916   0.39577   0.58392   -0.130417           
         C         C         0.66678   0.35734   0.62419   -0.185073           
         C         C         0.63386   0.29828   0.62074   0.201916  
         C         C         0.61711   0.27761   0.57458   -0.163524           
         C         C         0.63096   0.31518   0.53429   -0.132182           
         C         C         0.02901   0.37091   0.15382   0.207822  
         C         C         0.05531   0.37647   0.19842   -0.192949           
         C         C         0.02672   0.40083   0.23808   -0.115605           
         C         C         0.97082   0.42012   0.23544   0.058446  
         C         C         0.94823   0.42356   0.18922   -0.123393           
         C         C         0.97678   0.40070   0.14904   -0.161790           
         C         C         0.93847   0.43203   0.27961   0.042802  
         C         C         0.96573   0.43903   0.32347   -0.092687           
         C         C         0.93780   0.44619   0.36614   -0.182813           
         C         C         0.87985   0.44686   0.36885   0.201741  
         C         C         0.85167   0.43885   0.32524   -0.190144           
         C         C         0.88057   0.43204   0.28206   -0.122327           
         C         C         0.94881   0.15583   0.93121   0.036947  
         C         C         0.92239   0.16716   0.88743   -0.116129           
         C         C         0.91930   0.23256   0.86830   -0.131202           
         C         C         0.94254   0.28945   0.89167   0.052223  
         C         C         0.96593   0.27876   0.93716   -0.111283           
         C         C         0.96887   0.21343   0.95639   -0.140533           
         C         C         0.16121   0.15200   0.86666   0.054446  
         C         C         0.16494   0.14416   0.81668   -0.110899           
         C         C         0.11793   0.14325   0.78861   -0.119904           
         C         C         0.06485   0.14863   0.80899   0.050688  
         C         C         0.06162   0.16346   0.85794   -0.096185           
         C         C         0.10883   0.16576   0.88600   -0.105671           
         H         H         0.05315   0.17546   0.71493   0.116176  
         H         H         0.97700   0.13727   0.66239   0.113741  
         H         H         0.88988   0.08158   0.65169   0.115526  
         H         H         0.81433   0.01141   0.68362   0.099430  
         H         H         0.77419   0.94885   0.74929   0.116266  
         H         H         0.76690   0.92594   0.83686   0.113371  
         H         H         0.19591   0.13981   0.93728   0.058882  
         H         H         0.80847   0.87605   0.89850   0.105029  
         H         H         0.80105   0.85214   0.98412   0.103908  
         H         H         0.83234   0.06277   0.01580   0.094427  
         H         H         0.83764   0.08811   0.92941   0.113966  
         H         H         0.81759   0.88000   0.06454   0.068223  
         H         H         0.93654   0.74446   0.83606   0.112052  
         H         H         0.90512   0.74102   0.92182   0.115189  
         H         H         0.92001   0.78787   0.00301   0.112292  
         H         H         0.93638   0.88857   0.05379   0.112598  
         H         H         0.93890   0.01502   0.06070   0.109996  
         H         H         0.94522   0.12717   0.02338   0.111891  
         H         H         0.17219   0.82541   0.70033   0.065983  
         H         H         0.93171   0.34684   0.82736   0.053001  
         H         H         0.04593   0.73212   0.23401   0.107854  
         H         H         0.97824   0.73257   0.30061   0.108220  
         H         H         0.85033   0.78770   0.20228   0.100116  
         H         H         0.91886   0.79524   0.13691   0.111785  
         H         H         0.70832   0.40671   0.37777   0.111731  
         H         H         0.67594   0.33586   0.44518   0.107250  
         H         H         0.67100   0.51479   0.53449   0.107368  
         H         H         0.70375   0.58488   0.46754   0.111501  
         H         H         0.70342   0.44195   0.58776   0.095682  
         H         H         0.67936   0.37506   0.65939   0.098314  
         H         H         0.59022   0.23356   0.57168   0.114118  
         H         H         0.61540   0.29900   0.49963   0.101180  
         H         H         0.09730   0.35807   0.20230   0.110761  
         H         H         0.04739   0.40050   0.27246   0.108952  
         H         H         0.90655   0.44226   0.18425   0.090227  
         H         H         0.95695   0.39938   0.11430   0.118096  
         H         H         0.01024   0.43962   0.32565   0.107530  
         H         H         0.96337   0.45077   0.39756   0.104819  
         H         H         0.80701   0.44102   0.32533   0.102310  
         H         H         0.85668   0.42582   0.24946   0.086064  
         H         H         0.90643   0.12292   0.86848   0.099754  
         H         H         0.90122   0.23944   0.83301   0.103791  
         H         H         0.98330   0.32215   0.95613   0.118113  
         H         H         0.98907   0.20673   0.99072   0.098977  
         H         H         0.20503   0.13461   0.80081   0.105099  
         H         H         0.12212   0.13281   0.75061   0.104413  
         H         H         0.02158   0.17038   0.87421   0.104091  
         H         H         0.10487   0.17518   0.92422   0.095997  
         C         C         0.52618   0.58632   0.76661   0.200011  
         C         C         0.53201   0.59126   0.71636   -0.161277           
         C         C         0.48776   0.57840   0.68744   -0.083579           
         C         C         0.43662   0.56172   0.70790   0.031200  
         C         C         0.38861   0.55816   0.67882   -0.124274           
         C         C         0.33808   0.55031   0.69903   -0.143120           
         C         C         0.33357   0.53565   0.74875   0.035597  
         C         C         0.28178   0.52084   0.76884   -0.089746           
         C         C         0.27827   0.50116   0.81596   -0.194847           
         C         C         0.32710   0.49584   0.84307   0.207616  
         C         C         0.38082   0.53311   0.77913   0.121766  
         C         C         0.43402   0.55443   0.75872   0.119473  
         C         C         0.71237   0.59134   0.89047   0.086678  
         C         C         0.32108   0.47709   0.89486   0.054318  
         C         C         0.31586   0.40974   0.91105   -0.126275           
         C         C         0.30828   0.39600   0.95972   -0.110171           
         C         C         0.30647   0.44903   0.99368   0.049585  
         C         C         0.30997   0.51637   0.97682   -0.097286           
         C         C         0.31611   0.53024   0.92847   -0.131573           
         C         C         0.30931   0.43479   0.04555   0.089554  
         C         C         0.47063   0.28134   0.85719   0.204613  
         C         C         0.43340   0.22749   0.86605   -0.185527           
         C         C         0.41045   0.22236   0.91093   -0.095684           
         C         C         0.42010   0.27445   0.94490   0.028338  
         C         C         0.40751   0.26655   0.99451   -0.142369           
         C         C         0.41727   0.31924   0.02541   -0.135708           
         C         C         0.43176   0.38491   0.00736   0.025211  
         C         C         0.43241   0.44207   0.03748   -0.080812           
         C         C         0.43483   0.50634   0.01816   -0.167155           
         C         C         0.44043   0.51410   0.96845   0.200522  
         C         C         0.44216   0.39634   0.95786   0.131373  
         C         C         0.44534   0.33553   0.92762   0.129358  
         C         C         0.62639   0.27155   0.70325   0.079328  
         C         C         0.44253   0.77523   0.87330   0.069326  
         N         N         0.47828   0.56758   0.78686   -0.290913           
         N         N         0.37656   0.51158   0.82514   -0.276354           
         N         N         0.47321   0.33623   0.88580   -0.291099           
         N         N         0.44687   0.45968   0.93920   -0.292972           
         N         N         0.75368   0.55257   0.87898   -0.299525           
         N         N         0.31497   0.48347   0.07598   -0.248902           
         N         N         0.60835   0.26895   0.65995   -0.259808           
         N         N         0.46028   0.83450   0.88701   -0.291963           
         C         C         0.48315   0.32678   0.18965   0.042858  
         C         C         0.50138   0.30273   0.23425   -0.134454           
         C         C         0.46479   0.29568   0.27187   -0.094426           
         C         C         0.40826   0.30773   0.26523   0.052630  
         C         C         0.38934   0.32243   0.21900   -0.122630           
         C         C         0.42649   0.33424   0.18208   -0.121312           
         C         C         0.21646   0.07633   0.42251   0.205627  
         C         C         0.19617   0.01055   0.41243   -0.162578           
         C         C         0.17429   0.96952   0.44796   -0.130195           
         C         C         0.17045   0.99244   0.49552   0.058942  
         C         C         0.18362   0.06146   0.50413   -0.125104           
         C         C         0.20615   0.10280   0.46858   -0.185510           
         C         C         0.15817   0.94389   0.53427   0.049227  
         C         C         0.18501   0.94946   0.57869   -0.127402           
         C         C         0.17440   0.90417   0.61571   -0.176260           
         C         C         0.13452   0.85252   0.61060   0.203406  
         C         C         0.11049   0.84395   0.56511   -0.163558           
         C         C         0.12221   0.88825   0.52785   -0.136036           
         C         C         0.49953   0.93719   0.16974   0.197089  
         C         C         0.52260   0.94305   0.21565   -0.167308           
         C         C         0.49037   0.96177   0.25434   -0.113521           
         C         C         0.43375   0.97613   0.24949   0.065194  
         C         C         0.41349   0.98147   0.20253   -0.149878           
         C         C         0.44618   0.96381   0.16334   -0.146002           
         C         C         0.40055   0.98207   0.29356   0.050011  
         C         C         0.42691   0.00495   0.33518   -0.107214           
         C         C         0.39886   0.01070   0.37767   -0.159424           
         C         C         0.34488   0.98716   0.38410   0.197538  
         C         C         0.31785   0.96288   0.34289   -0.195624           
         C         C         0.34507   0.96274   0.29845   -0.137390           
         C         C         0.43871   0.58326   0.94698   0.041186  
         C         C         0.43789   0.58915   0.89726   -0.108917           
         C         C         0.43445   0.65264   0.87562   -0.121046           
         C         C         0.43492   0.71380   0.90207   0.051736  
         C         C         0.43535   0.70843   0.95234   -0.126418           
         C         C         0.43650   0.64445   0.97401   -0.136046           
         C         C         0.66921   0.60972   0.85671   0.049190  
         C         C         0.67473   0.60453   0.80681   -0.117540           
         C         C         0.62844   0.60087   0.77796   -0.124307           
         C         C         0.57475   0.60055   0.79731   0.050222  
         C         C         0.56971   0.61179   0.84672   -0.093242           
         C         C         0.61600   0.61788   0.87548   -0.103148           
         H         H         0.57062   0.60744   0.70075   0.116821  
         H         H         0.49096   0.58312   0.64882   0.117199  
         H         H         0.39296   0.56496   0.64043   0.109804  
         H         H         0.30070   0.55485   0.67791   0.101907  
         H         H         0.24529   0.52472   0.74647   0.111903  
         H         H         0.23894   0.48987   0.83256   0.117188  
         H         H         0.70368   0.60420   0.92792   0.060421  
         H         H         0.31892   0.36756   0.88581   0.113023  
         H         H         0.30610   0.34320   0.97154   0.100778  
         H         H         0.30910   0.55746   0.00290   0.095543  
         H         H         0.31921   0.58281   0.91649   0.111534  
         H         H         0.31171   0.38058   0.05556   0.068252  
         H         H         0.42693   0.18844   0.83916   0.108045  
         H         H         0.38638   0.17780   0.92099   0.110781  
         H         H         0.39230   0.21752   0.00696   0.113783  
         H         H         0.41119   0.31366   0.06375   0.110371  
         H         H         0.42898   0.43435   0.07575   0.106166  
         H         H         0.43300   0.55112   0.04097   0.110645  
         H         H         0.66896   0.28551   0.71219   0.062530  
         H         H         0.43866   0.76446   0.83486   0.056116  
         H         H         0.54506   0.29391   0.23992   0.104503  
         H         H         0.47876   0.28302   0.30759   0.103877  
         H         H         0.34567   0.32975   0.21276   0.101562  
         H         H         0.41173   0.35153   0.14750   0.102636  
         H         H         0.20218   0.98955   0.37695   0.108374  
         H         H         0.16322   0.91718   0.43928   0.097761  
         H         H         0.17784   0.08229   0.53987   0.108929  
         H         H         0.21775   0.15515   0.47682   0.112912  
         H         H         0.21495   0.98987   0.58388   0.092508  
         H         H         0.19420   0.91155   0.65015   0.097570  
         H         H         0.07942   0.80467   0.56120   0.106732  
         H         H         0.10073   0.88217   0.49402   0.099910  
         H         H         0.56528   0.92907   0.22182   0.103152  
         H         H         0.50849   0.96071   0.28980   0.110103  
         H         H         0.37121   0.99763   0.19656   0.095319  
         H         H         0.42934   0.96416   0.12744   0.113961  
         H         H         0.46942   0.02163   0.33470   0.112103  
         H         H         0.41950   0.03481   0.40725   0.104183  
         H         H         0.27572   0.94500   0.34520   0.107378  
         H         H         0.32307   0.94388   0.26725   0.090541  
         H         H         0.43915   0.54342   0.87538   0.104825  
         H         H         0.43464   0.65479   0.83679   0.098370  
         H         H         0.43556   0.75458   0.97406   0.111161  
         H         H         0.43778   0.64246   0.01278   0.093654  
         H         H         0.71554   0.59969   0.79126   0.106124  
         H         H         0.63456   0.59380   0.73983   0.101828  
         H         H         0.52906   0.61328   0.86259   0.108007  
         H         H         0.61118   0.62293   0.91395   0.094116  
         C         C         0.53982   0.09140   0.73754   0.201925  
         C         C         0.54608   0.09666   0.78769   -0.163544           
         C         C         0.50129   0.08772   0.81669   -0.083063           
         C         C         0.44957   0.07394   0.79631   0.032369  
         C         C         0.40193   0.07265   0.82601   -0.123311           
         C         C         0.35097   0.06841   0.80629   -0.140345           
         C         C         0.34528   0.05501   0.75647   0.034679  
         C         C         0.29244   0.04248   0.73777   -0.088780           
         C         C         0.28703   0.02375   0.69059   -0.196443           
         C         C         0.33490   0.01776   0.66213   0.204979  
         C         C         0.39172   0.05065   0.72508   0.122490  
         C         C         0.44617   0.06741   0.74532   0.124596  
         C         C         0.72309   0.07987   0.61085   0.085521  
         C         C         0.32581   -0.00145  0.61077   0.055096  
         C         C         0.32162   0.93073   0.59527   -0.122578           
         C         C         0.31194   0.91544   0.54711   -0.111170           
         C         C         0.30780   0.96760   0.51287   0.050027  
         C         C         0.30874   0.03537   0.52927   -0.104645           
         C         C         0.31654   0.05061   0.57731   -0.135273           
         C         C         0.31149   0.95119   0.46134   0.091358  
         C         C         0.46640   0.77281   0.65115   0.205029  
         C         C         0.42845   0.71914   0.64397   -0.185509           
         C         C         0.40431   0.71264   0.59966   -0.093015           
         C         C         0.41373   0.76297   0.56457   0.028155  
         C         C         0.39856   0.75384   0.51561   -0.144185           
         C         C         0.40867   0.80462   0.48346   -0.137902           
         C         C         0.42668   0.87009   0.49961   0.027112  
         C         C         0.42991   0.92566   0.46835   -0.084900           
         C         C         0.43547   0.98977   0.48721   -0.166084           
         C         C         0.43907   -0.00009  0.53678   0.202494  
         C         C         0.43895   0.88315   0.54874   0.123429  
         C         C         0.44114   0.82373   0.57991   0.133061  
         C         C         0.62320   0.77862   0.80357   0.080734  
         C         C         0.43370   0.28116   0.60136   0.066796  
         N         N         0.49097   0.07706   0.71712   -0.296436           
         N         N         0.38551   0.03120   0.67857   -0.283550           
         N         N         0.46968   0.82591   0.62125   -0.298848           
         N         N         0.44504   0.94699   0.56693   -0.291786           
         N         N         0.76087   0.03522   0.62056   -0.296650           
         N         N         0.32528   0.99711   0.43091   -0.262327           
         N         N         0.60539   0.77849   0.84703   -0.267341           
         N         N         0.47024   0.29823   0.63180   -0.215096           
         C         C         0.48644   0.82348   0.30706   0.042227  
         C         C         0.50719   0.79946   0.26313   -0.132848           
         C         C         0.47294   0.79189   0.22398   -0.095769           
         C         C         0.41614   0.80428   0.22800   0.058987  
         C         C         0.39458   0.81838   0.27356   -0.129029           
         C         C         0.42935   0.82986   0.31231   -0.120240           
         C         C         0.21616   0.58115   0.07725   0.203955  
         C         C         0.19168   0.51839   0.08924   -0.159141           
         C         C         0.16814   0.47658   0.05477   -0.126386           
         C         C         0.16702   0.49583   0.00638   0.059073  
         C         C         0.18439   0.56280   0.99573   -0.128152           
         C         C         0.20850   0.60478   0.03016   -0.184433           
         C         C         0.15258   0.44601   0.96874   0.052654  
         C         C         0.17850   0.44910   0.92375   -0.129586           
         C         C         0.16543   0.40374   0.88727   -0.180320           
         C         C         0.12456   0.35363   0.89350   0.200518  
         C         C         0.10162   0.34711   0.93961   -0.158123           
         C         C         0.11526   0.39201   0.97631   -0.131969           
         C         C         0.48753   0.43940   0.33736   0.196978  
         C         C         0.50974   0.44229   0.29094   -0.162210           
         C         C         0.47748   0.46166   0.25267   -0.116613           
         C         C         0.42158   0.47926   0.25825   0.064366  
         C         C         0.40272   0.48807   0.30546   -0.149159           
         C         C         0.43562   0.46988   0.34432   -0.144313           
         C         C         0.38796   0.48349   0.21443   0.042945  
         C         C         0.41473   0.50207   0.17198   -0.108195           
         C         C         0.38719   0.50430   0.12922   -0.169694           
         C         C         0.33350   0.47927   0.12343   0.205907  
         C         C         0.30545   0.46109   0.16558   -0.199300           
         C         C         0.33216   0.46553   0.21024   -0.133860           
         C         C         0.43712   0.07137   0.55434   0.045030  
         C         C         0.45439   0.08959   0.60035   -0.102398           
         C         C         0.45222   0.15736   0.61534   -0.111466           
         C         C         0.43200   0.20932   0.58552   0.046536  
         C         C         0.41234   0.19089   0.54008   -0.145419           
         C         C         0.41579   0.12343   0.52476   -0.127885           
         C         C         0.68210   0.10203   0.64570   0.048435  
         C         C         0.68849   0.09772   0.69554   -0.118351           
         C         C         0.64268   0.09856   0.72523   -0.124292           
         C         C         0.58875   0.10120   0.70658   0.047888  
         C         C         0.58324   0.11162   0.65725   -0.094647           
         C         C         0.62905   0.11385   0.62767   -0.101378           
         H         H         0.58541   0.11038   0.80310   0.115496  
         H         H         0.50449   0.09339   0.85527   0.116925  
         H         H         0.40707   0.07801   0.86446   0.112266  
         H         H         0.31374   0.07423   0.82750   0.102008  
         H         H         0.25699   0.04658   0.76144   0.113260  
         H         H         0.24703   0.01342   0.67486   0.116729  
         H         H         0.71490   0.09528   0.57383   0.060604  
         H         H         0.32756   0.88938   0.62058   0.114557  
         H         H         0.31061   0.86233   0.53572   0.099266  
         H         H         0.30538   0.07603   0.50324   0.092156  
         H         H         0.31858   0.10354   0.58891   0.109388  
         H         H         0.30842   0.89682   0.45190   0.066583  
         H         H         0.42221   0.68126   0.67159   0.110468  
         H         H         0.37930   0.66833   0.59084   0.108730  
         H         H         0.38101   0.70525   0.50465   0.111008  
         H         H         0.40038   0.79777   0.44554   0.113554  
         H         H         0.42617   0.91827   0.42998   0.110557  
         H         H         0.43841   0.03365   0.46420   0.107622  
         H         H         0.66529   0.79376   0.79396   0.063074  
         H         H         0.40420   0.31743   0.58553   0.070378  
         H         H         0.55114   0.79048   0.25932   0.102230  
         H         H         0.48909   0.77794   0.18914   0.104549  
         H         H         0.35051   0.82527   0.27791   0.102158  
         H         H         0.41239   0.84601   0.34651   0.106465  
         H         H         0.19566   0.50003   0.12558   0.107699  
         H         H         0.15324   0.42648   0.06518   0.111531  
         H         H         0.18054   0.58139   0.95930   0.106346  
         H         H         0.22303   0.65532   0.02032   0.111983  
         H         H         0.20974   0.48769   0.91775   0.090656  
         H         H         0.18430   0.40950   0.85229   0.093006  
         H         H         0.07029   0.30844   0.94480   0.107701  
         H         H         0.09460   0.38715   0.01069   0.108261  
         H         H         0.55152   0.42528   0.28400   0.101708  
         H         H         0.49481   0.45799   0.21702   0.110645  
         H         H         0.36123   0.50683   0.31196   0.094629  
         H         H         0.41964   0.47258   0.38052   0.111355  
         H         H         0.45755   0.51735   0.17189   0.111878  
         H         H         0.40759   0.52653   0.09892   0.104739  
         H         H         0.26310   0.44372   0.16394   0.112273  
         H         H         0.30948   0.45062   0.24211   0.090711  
         H         H         0.46860   0.05048   0.62487   0.112748  
         H         H         0.46582   0.17038   0.65120   0.107299  
         H         H         0.39539   0.22966   0.51641   0.102356  
         H         H         0.40005   0.11069   0.48956   0.097594  
         H         H         0.72931   0.09021   0.71042   0.106609  
         H         H         0.64919   0.09252   0.76336   0.100899  
         H         H         0.54250   0.11607   0.64208   0.104441  
         H         H         0.62361   0.11843   0.58926   0.093951  
         C         C         0.01622   0.63543   0.72028   0.197294  
         C         C         0.01972   0.64773   0.77012   -0.158286           
         C         C         0.97593   0.63144   0.79874   -0.093275           
         C         C         0.92804   0.60306   0.77849   0.032952  
         C         C         0.88341   0.58396   0.80868   -0.124746           
         C         C         0.83919   0.55029   0.79050   -0.140458           
         C         C         0.83682   0.53449   0.74075   0.034631  
         C         C         0.79256   0.49566   0.72270   -0.094761           
         C         C         0.79009   0.47994   0.67481   -0.187574           
         C         C         0.83086   0.50634   0.64375   0.200346  
         C         C         0.87836   0.55641   0.70782   0.122348  
         C         C         0.92700   0.59190   0.72777   0.119192  
         C         C         0.20826   0.63526   0.60089   0.086694  
         C         C         0.82513   0.49072   0.59154   0.044398  
         C         C         0.81304   0.42358   0.57697   -0.137148           
         C         C         0.80987   0.40573   0.52871   -0.114829           
         C         C         0.81948   0.45404   0.49268   0.052674  
         C         C         0.82761   0.52210   0.50735   -0.109159           
         C         C         0.83018   0.54025   0.55551   -0.123159           
         C         C         0.83007   0.42959   0.44335   0.086798  
         C         C         0.97368   0.34020   0.65298   0.200419  
         C         C         0.94071   0.28465   0.63824   -0.187877           
         C         C         0.92329   0.28383   0.59154   -0.100127           
         C         C         0.93414   0.34037   0.56193   0.033889  
         C         C         0.92845   0.33485   0.51154   -0.145227           
         C         C         0.93758   0.39038   0.48368   -0.120914           
         C         C         0.94533   0.45600   0.50492   0.038813  
         C         C         0.94553   0.51495   0.47635   -0.077798           
         C         C         0.95047   0.57807   0.49687   -0.179644           
         C         C         0.95567   0.58338   0.54688   0.197864  
         C         C         0.95295   0.46481   0.55532   0.128363  
         C         C         0.95422   0.40168   0.58394   0.133112  
         C         C         0.11903   0.31599   0.81307   0.075242  
         C         C         0.95861   0.85123   0.63230   0.066099  
         N         N         0.97082   0.60911   0.69994   -0.283600           
         N         N         0.87315   0.54362   0.66010   -0.267131           
         N         N         0.97702   0.39865   0.62824   -0.292397           
         N         N         0.95867   0.52790   0.57540   -0.290021           
         N         N         0.25235   0.60274   0.61390   -0.300880           
         N         N         0.85611   0.46620   0.41279   -0.250314           
         N         N         0.09826   0.32149   0.85539   -0.256655           
         N         N         0.99129   0.90096   0.62132   -0.283363           
         C         C         0.98942   0.26453   0.30924   0.045675  
         C         C         0.00442   0.24397   0.26275   -0.126356           
         C         C         0.96634   0.24502   0.22605   -0.098776           
         C         C         0.91137   0.26382   0.23461   0.054554  
         C         C         0.89503   0.27639   0.28207   -0.124272           
         C         C         0.93379   0.27826   0.31867   -0.114470           
         C         C         0.71605   0.01557   0.08474   0.201410  
         C         C         0.70170   0.94650   0.09090   -0.163381           
         C         C         0.68211   0.90756   0.05298   -0.127771           
         C         C         0.67472   0.93604   0.00726   0.058719  
         C         C         0.68349   0.00691   0.00280   -0.119024           
         C         C         0.70377   0.04599   0.04047   -0.180541           
         C         C         0.66047   0.89275   0.96580   0.051776  
         C         C         0.67710   0.91040   0.91918   -0.126961           
         C         C         0.66366   0.87014   0.87986   -0.186844           
         C         C         0.63126   0.81088   0.88502   0.200465  
         C         C         0.61588   0.79216   0.93180   -0.157805           
         C         C         0.63063   0.83157   0.97105   -0.128589           
         C         C         0.01991   0.85353   0.34134   0.200370  
         C         C         0.04984   0.86408   0.29889   -0.196306           
         C         C         0.02460   0.89524   0.25995   -0.114467           
         C         C         0.96974   0.91829   0.26205   0.048144  
         C         C         0.94575   0.92081   0.30787   -0.122548           
         C         C         0.96989   0.88924   0.34686   -0.174352           
         C         C         0.93816   0.93249   0.21817   0.044817  
         C         C         0.96544   0.93922   0.17436   -0.093587           
         C         C         0.93741   0.94815   0.13202   -0.182194           
         C         C         0.87949   0.95065   0.12988   0.200038  
         C         C         0.85127   0.94249   0.17342   -0.191918           
         C         C         0.88027   0.93411   0.21624   -0.124878           
         C         C         0.95373   0.65403   0.56654   0.038673  
         C         C         0.92586   0.66826   0.60928   -0.118561           
         C         C         0.92420   0.73439   0.62748   -0.129939           
         C         C         0.95039   0.78914   0.60421   0.052932  
         C         C         0.97506   0.77573   0.55948   -0.115165           
         C         C         0.97659   0.70963   0.54115   -0.136994           
         C         C         0.16307   0.65149   0.63351   0.052652  
         C         C         0.16611   0.64002   0.68314   -0.109569           
         C         C         0.11889   0.63922   0.71097   -0.121448           
         C         C         0.06615   0.64827   0.69069   0.052597  
         C         C         0.06367   0.66553   0.64217   -0.095485           
         C         C         0.11114   0.66762   0.61432   -0.105228           
         H         H         0.05650   0.67047   0.78520   0.117933  
         H         H         0.97796   0.63897   0.83725   0.115028  
         H         H         0.88609   0.59497   0.84677   0.115832  
         H         H         0.80521   0.53552   0.81363   0.100412  
         H         H         0.76074   0.47877   0.74737   0.116076  
         H         H         0.75664   0.44960   0.66036   0.113465  
         H         H         0.19924   0.64464   0.56298   0.058220  
         H         H         0.80831   0.38402   0.60381   0.106351  
         H         H         0.80275   0.35269   0.51897   0.104215  
         H         H         0.83464   0.56049   0.48018   0.094074  
         H         H         0.83793   0.59298   0.56549   0.114087  
         H         H         0.81948   0.37594   0.43634   0.069032  
         H         H         0.93478   0.24148   0.66193   0.113970  
         H         H         0.90344   0.23906   0.57630   0.115054  
         H         H         0.91882   0.28541   0.49594   0.111735  
         H         H         0.93703   0.38564   0.44512   0.113030  
         H         H         0.93996   0.51112   0.43818   0.110064  
         H         H         0.94893   0.62363   0.47489   0.114107  
         H         H         0.16298   0.32349   0.80545   0.064709  
         H         H         0.94070   0.84745   0.66826   0.053193  
         H         H         0.04701   0.23079   0.25513   0.104208  
         H         H         0.97801   0.23403   0.18939   0.101838  
         H         H         0.85247   0.28930   0.28989   0.101029  
         H         H         0.92175   0.29280   0.35471   0.109796  
         H         H         0.70951   0.92296   0.12537   0.112618  
         H         H         0.67442   0.85350   0.05845   0.106944  
         H         H         0.67510   0.03151   0.96879   0.106344  
         H         H         0.71147   0.10015   0.03542   0.112300  
         H         H         0.70126   0.95636   0.91387   0.100638  
         H         H         0.67524   0.88664   0.84416   0.097854  
         H         H         0.58956   0.74785   0.93609   0.112461  
         H         H         0.61635   0.81635   0.00626   0.098609  
         H         H         0.08976   0.83971   0.29464   0.110910  
         H         H         0.04657   0.89560   0.22615   0.108798  
         H         H         0.90568   0.94454   0.31263   0.092204  
         H         H         0.94827   0.88650   0.38074   0.114161  
         H         H         0.00992   0.93808   0.17211   0.108152  
         H         H         0.96288   0.95310   0.10057   0.105996  
         H         H         0.80667   0.94617   0.17367   0.101919  
         H         H         0.85673   0.92771   0.24902   0.085052  
         H         H         0.90776   0.62560   0.62839   0.099637  
         H         H         0.90467   0.74354   0.66197   0.103462  
         H         H         0.99454   0.81750   0.54046   0.116676  
         H         H         0.99790   0.70050   0.50754   0.098006  
         H         H         0.20578   0.62784   0.69881   0.106210  
         H         H         0.12255   0.62603   0.74854   0.104051  
         H         H         0.02390   0.67450   0.62601   0.102133  
         H         H         0.10743   0.67876   0.57638   0.096464  
         C         C         0.48341   0.13254   0.27785   0.196176  
         C         C         0.47979   0.14276   0.22782   -0.159101           
         C         C         0.52304   0.12353   0.19930   -0.092276           
         C         C         0.57037   0.09392   0.21977   0.032152  
         C         C         0.61371   0.07028   0.18956   -0.124376           
         C         C         0.65715   0.03541   0.20814   -0.137154           
         C         C         0.66033   0.02358   0.25830   0.031259  
         C         C         0.70434   0.98475   0.27695   -0.092015           
         C         C         0.70788   0.97335   0.32530   -0.189422           
         C         C         0.66819   0.00359   0.35597   0.201406  
         C         C         0.62006   0.04989   0.29105   0.124775  
         C         C         0.57180   0.08572   0.27069   0.120237  
         C         C         0.29378   0.13759   0.39933   0.083569  
         C         C         0.67468   0.99132   0.40840   0.043802  
         C         C         0.68749   0.92488   0.42401   -0.135864           
         C         C         0.69124   0.90926   0.47245   -0.116182           
         C         C         0.68135   0.95901   0.50766   0.052030  
         C         C         0.67261   0.02644   0.49197   -0.107922           
         C         C         0.66956   0.04249   0.44353   -0.122079           
         C         C         0.67078   0.93547   0.55697   0.087915  
         C         C         0.52343   0.83681   0.34815   0.201369  
         C         C         0.55673   0.78151   0.36308   -0.187787           
         C         C         0.57563   0.78254   0.40931   -0.097786           
         C         C         0.56580   0.84040   0.43823   0.033269  
         C         C         0.57289   0.83640   0.48856   -0.144118           
         C         C         0.56404   0.89272   0.51599   -0.119991           
         C         C         0.55567   0.95762   0.49412   0.040535  
         C         C         0.55539   0.01723   0.52224   -0.079816           
         C         C         0.55002   0.07985   0.50128   -0.177898           
         C         C         0.54481   0.08403   0.45123   0.196530  
         C         C         0.54717   0.96511   0.44372   0.128971  
         C         C         0.54497   0.90101   0.41582   0.133515  
         C         C         0.38159   0.81296   0.18570   0.076191  
         C         C         0.54188   0.34999   0.36396   0.063617  
         N         N         0.52859   0.10584   0.29845   -0.283920           
         N         N         0.62609   0.04077   0.33903   -0.266405           
         N         N         0.52072   0.89631   0.37209   -0.294739           
         N         N         0.54136   0.02780   0.42323   -0.288940           
         N         N         0.24905   0.10641   0.38675   -0.300188           
         N         N         0.64460   0.97211   0.58764   -0.253313           
         N         N         0.40360   0.81817   0.14388   -0.258242           
         N         N         0.50805   0.39881   0.37507   -0.283166           
         C         C         0.50705   0.76813   0.69017   0.042005  
         C         C         0.49192   0.74887   0.73671   -0.125822           
         C         C         0.53037   0.74880   0.77311   -0.099897           
         C         C         0.58554   0.76550   0.76402   0.054507  
         C         C         0.60163   0.77829   0.71663   -0.125710           
         C         C         0.56265   0.78093   0.68032   -0.113790           
         C         C         0.78426   0.52162   0.91569   0.204850  
         C         C         0.79857   0.45256   0.90849   -0.164422           
         C         C         0.81862   0.41283   0.94577   -0.126581           
         C         C         0.82696   0.44054   0.99171   0.058043  
         C         C         0.81894   0.51157   0.99686   -0.119126           
         C         C         0.79790   0.55140   0.95995   -0.182980           
         C         C         0.84089   0.39651   0.03281   0.051910  
         C         C         0.82555   0.41525   0.07966   -0.124989           
         C         C         0.83855   0.37477   0.11887   -0.187383           
         C         C         0.86866   0.31345   0.11344   0.201204  
         C         C         0.88259   0.29355   0.06640   -0.161745           
         C         C         0.86863   0.33358   0.02729   -0.127246           
         C         C         0.48162   0.35677   0.65800   0.200726  
         C         C         0.45192   0.37167   0.69999   -0.197013           
         C         C         0.47804   0.40362   0.73818   -0.113761           
         C         C         0.53367   0.42329   0.73579   0.045492  
         C         C         0.55751   0.42258   0.68989   -0.122118           
         C         C         0.53236   0.39018   0.65159   -0.179794           
         C         C         0.56557   0.43659   0.77967   0.045674  
         C         C         0.53814   0.44378   0.82344   -0.094837           
         C         C         0.56586   0.45227   0.86596   -0.178402           
         C         C         0.62378   0.45294   0.86840   0.200488  
         C         C         0.65223   0.44377   0.82501   -0.191107           
         C         C         0.62348   0.43614   0.78193   -0.128307           
         C         C         0.54729   0.15425   0.43109   0.036964  
         C         C         0.57487   0.16720   0.38809   -0.119179           
         C         C         0.57689   0.23294   0.36945   -0.131198           
         C         C         0.55098   0.28855   0.39241   0.054514  
         C         C         0.52703   0.27655   0.43756   -0.114843           
         C         C         0.52534   0.21091   0.45638   -0.138756           
         C         C         0.33820   0.15332   0.36599   0.054344  
         C         C         0.33407   0.14192   0.31638   -0.108574           
         C         C         0.38082   0.14002   0.28795   -0.120145           
         C         C         0.43399   0.14785   0.30762   0.050543  
         C         C         0.43741   0.16575   0.35605   -0.095719           
         C         C         0.39048   0.16889   0.38449   -0.103784           
         H         H         0.44337   0.16599   0.21236   0.118793  
         H         H         0.52102   0.12919   0.16066   0.114367  
         H         H         0.61053   0.07858   0.15120   0.116979  
         H         H         0.69029   0.01737   0.18515   0.099496  
         H         H         0.73504   0.96439   0.25234   0.116222  
         H         H         0.74122   0.94326   0.34031   0.114235  
         H         H         0.30403   0.14536   0.43721   0.059515  
         H         H         0.69225   0.88415   0.39788   0.106478  
         H         H         0.69906   0.85681   0.48318   0.104710  
         H         H         0.66557   0.06609   0.51844   0.095536  
         H         H         0.66133   0.09478   0.43275   0.113789  
         H         H         0.68114   0.88173   0.56374   0.067520  
         H         H         0.56206   0.73735   0.33991   0.115013  
         H         H         0.59593   0.73828   0.42484   0.114979  
         H         H         0.58315   0.78738   0.50443   0.111925  
         H         H         0.56526   0.88925   0.55461   0.113011  
         H         H         0.56159   0.01418   0.56038   0.109928  
         H         H         0.55163   0.12592   0.52289   0.113479  
         H         H         0.33754   0.82154   0.19247   0.063762  
         H         H         0.55996   0.34606   0.32804   0.054697  
         H         H         0.44910   0.73745   0.74450   0.105202  
         H         H         0.51893   0.73830   0.80982   0.102472  
         H         H         0.64422   0.79050   0.70869   0.101952  
         H         H         0.57452   0.79500   0.64423   0.110296  
         H         H         0.79008   0.42970   0.87383   0.112941  
         H         H         0.82584   0.35869   0.93968   0.106451  
         H         H         0.82842   0.53584   0.03084   0.106621  
         H         H         0.79072   0.60565   0.96560   0.113029  
         H         H         0.80260   0.46231   0.08524   0.101018  
         H         H         0.82800   0.39237   0.15463   0.097976  
         H         H         0.90674   0.24724   0.06157   0.113502  
         H         H         0.88192   0.31702   0.99197   0.099284  
         H         H         0.41106   0.35043   0.70465   0.111347  
         H         H         0.45558   0.40765   0.77164   0.107460  
         H         H         0.59814   0.44427   0.68447   0.093256  
         H         H         0.55383   0.38487   0.61777   0.113194  
         H         H         0.49368   0.44386   0.82554   0.108208  
         H         H         0.54025   0.45759   0.89737   0.108229  
         H         H         0.69691   0.44513   0.82517   0.100924  
         H         H         0.64717   0.42858   0.74931   0.085349  
         H         H         0.59249   0.12381   0.36913   0.099609  
         H         H         0.59620   0.24096   0.33479   0.104276  
         H         H         0.50819   0.31918   0.45647   0.115896  
         H         H         0.50442   0.20294   0.49026   0.096529  
         H         H         0.29400   0.13043   0.30128   0.107291  
         H         H         0.37639   0.12690   0.25040   0.103577  
         H         H         0.47747   0.17402   0.37179   0.101890  
         H         H         0.39479   0.18006   0.42242   0.095293  
         C         C         0.96174   0.58669   0.26499   0.200737  
         C         C         0.95591   0.58880   0.21470   -0.162864           
         C         C         0.00115   0.57928   0.18619   -0.080711           
         C         C         0.05305   0.56818   0.20711   0.030605  
         C         C         0.10111   0.56724   0.17783   -0.123901           
         C         C         0.15198   0.56638   0.19804   -0.140355           
         C         C         0.15749   0.55560   0.24819   0.034080  
         C         C         0.21042   0.54697   0.26781   -0.087416           
         C         C         0.21575   0.52987   0.31523   -0.198005           
         C         C         0.16771   0.52040   0.34286   0.208040  
         C         C         0.11072   0.54973   0.27911   0.123176  
         C         C         0.05601   0.56406   0.25821   0.126738  
         C         C         0.77676   0.57642   0.39009   0.085067  
         C         C         0.17690   0.50075   0.39409   0.051365  
         C         C         0.17987   0.43285   0.40946   -0.118373           
         C         C         0.18976   0.41739   0.45751   -0.113131           
         C         C         0.19448   0.46950   0.49192   0.050916  
         C         C         0.19484   0.53715   0.47565   -0.104029           
         C         C         0.18762   0.55251   0.42760   -0.135367           
         C         C         0.18915   0.45313   0.54329   0.090050  
         C         C         0.03047   0.26980   0.34811   0.202766  
         C         C         0.06872   0.21616   0.35497   -0.184530           
         C         C         0.09376   0.21042   0.39894   -0.093088           
         C         C         0.08501   0.26140   0.43393   0.027804  
         C         C         0.10108   0.25259   0.48265   -0.141377           
         C         C         0.09153   0.30379   0.51482   -0.138733           
         C         C         0.07367   0.36929   0.49867   0.028521  
         C         C         0.07167   0.42507   0.53003   -0.087497           
         C         C         0.06713   0.48938   0.51144   -0.164525           
         C         C         0.06232   0.49922   0.46193   0.203839  
         C         C         0.06081   0.38224   0.44967   0.122349  
         C         C         0.05750   0.32225   0.41868   0.130344  
         C         C         0.87480   0.27956   0.19469   0.079923  
         C         C         0.07136   0.77910   0.39563   0.066111  
         N         N         0.01071   0.57410   0.28588   -0.293587           
         N         N         0.11693   0.53065   0.32562   -0.281404           
         N         N         0.02797   0.32358   0.37781   -0.294697           
         N         N         0.05500   0.44619   0.43177   -0.291113           
         N         N         0.73912   0.53185   0.38019   -0.304159           
         N         N         0.17215   0.49850   0.57313   -0.260852           
         N         N         0.89319   0.27926   0.15135   -0.268297           
         N         N         0.03046   0.79717   0.36983   -0.225978           
         C         C         0.01079   0.32789   0.69408   0.042472  
         C         C         0.99097   0.30547   0.73858   -0.130367           
         C         C         0.02636   0.29764   0.77693   -0.098118           
         C         C         0.08318   0.30823   0.77154   0.058986  
         C         C         0.10360   0.32158   0.72555   -0.129904           
         C         C         0.06777   0.33325   0.68762   -0.118755           
         C         C         0.28500   0.07384   0.92039   0.202802  
         C         C         0.30775   0.00970   0.90844   -0.160455           
         C         C         0.33201   0.96807   0.94263   -0.127196           
         C         C         0.33558   0.98890   0.99067   0.059593  
         C         C         0.31935   0.05650   0.00117   -0.129987           
         C         C         0.29473   0.09836   0.96702   -0.183204           
         C         C         0.35073   0.94020   0.02871   0.052174  
         C         C         0.32401   0.94439   0.07333   -0.129096           
         C         C         0.33684   0.90028   0.11049   -0.177815           
         C         C         0.37833   0.85035   0.10526   0.199465  
         C         C         0.40278   0.84340   0.05972   -0.158662           
         C         C         0.38922   0.88689   0.02225   -0.131278           
         C         C         0.01012   0.94188   0.65963   0.201212  
         C         C         0.98507   0.94726   0.70486   -0.169069           
         C         C         0.01568   0.96565   0.74449   -0.114006           
         C         C         0.07234   0.98026   0.74128   0.062138  
         C         C         0.09414   0.98700   0.69491   -0.145719           
         C         C         0.06312   0.96969   0.65477   -0.145406           
         C         C         0.10429   0.98473   0.78602   0.049925  
         C         C         0.07616   0.00331   0.82786   -0.107877           
         C         C         0.10254   0.00734   0.87114   -0.160362           
         C         C         0.15734   0.98639   0.87767   0.198594  
         C         C         0.18643   0.96701   0.83615   -0.194024           
         C         C         0.16038   0.96819   0.79126   -0.136127           
         C         C         0.06496   0.57051   0.44437   0.041455  
         C         C         0.04683   0.58892   0.39872   -0.101354           
         C         C         0.05018   0.65639   0.38356   -0.116299           
         C         C         0.07256   0.70788   0.41262   0.049225  
         C         C         0.09334   0.68918   0.45760   -0.149136           
         C         C         0.08837   0.62216   0.47329   -0.127350           
         C         C         0.81801   0.59823   0.35553   0.050733  
         C         C         0.81242   0.59176   0.30571   -0.119334           
         C         C         0.85856   0.59251   0.27643   -0.121930           
         C         C         0.91227   0.59741   0.29542   0.046629  
         C         C         0.91680   0.61048   0.34460   -0.094692           
         C         C         0.87058   0.61247   0.37376   -0.105096           
         H         H         0.91646   0.60031   0.19859   0.116708  
         H         H         0.99802   0.58236   0.14747   0.117372  
         H         H         0.09632   0.57042   0.13923   0.112713  
         H         H         0.18912   0.57296   0.17683   0.105149  
         H         H         0.24617   0.55240   0.24467   0.112387  
         H         H         0.25583   0.52248   0.33163   0.116578  
         H         H         0.78446   0.59246   0.42711   0.060129  
         H         H         0.17322   0.39160   0.38405   0.115217  
         H         H         0.19067   0.36429   0.46873   0.100080  
         H         H         0.19884   0.57781   0.50172   0.090201  
         H         H         0.18680   0.60548   0.41614   0.108970  
         H         H         0.19383   0.39900   0.55284   0.067851  
         H         H         0.07460   0.17776   0.32747   0.110396  
         H         H         0.11905   0.16622   0.40764   0.109252  
         H         H         0.11881   0.20398   0.49344   0.110646  
         H         H         0.10035   0.29751   0.55268   0.113652  
         H         H         0.07599   0.41737   0.56829   0.109481  
         H         H         0.06686   0.53361   0.53453   0.109636  
         H         H         0.83299   0.29673   0.20392   0.062169  
         H         H         0.10500   0.81361   0.40608   0.069755  
         H         H         0.94705   0.29780   0.74350   0.103200  
         H         H         0.01127   0.28507   0.81230   0.103641  
         H         H         0.14756   0.32780   0.72023   0.102501  
         H         H         0.08367   0.34884   0.65301   0.105940  
         H         H         0.30239   0.99055   0.87234   0.109471  
         H         H         0.34576   0.91716   0.93248   0.111931  
         H         H         0.32466   0.07577   0.03736   0.106992  
         H         H         0.28122   0.14951   0.97685   0.111978  
         H         H         0.29219   0.98281   0.07842   0.093058  
         H         H         0.31703   0.90692   0.14505   0.094922  
         H         H         0.43506   0.80537   0.05569   0.107959  
         H         H         0.41078   0.88166   0.98825   0.107468  
         H         H         0.94235   0.93283   0.70982   0.102941  
         H         H         0.99618   0.96355   0.77935   0.109874  
         H         H         0.13652   0.00323   0.69019   0.093934  
         H         H         0.08125   0.97076   0.61933   0.111456  
         H         H         0.03316   0.01790   0.82713   0.110731  
         H         H         0.07972   0.02796   0.90096   0.108958  
         H         H         0.22939   0.95215   0.83866   0.106585  
         H         H         0.18419   0.95296   0.76002   0.090041  
         H         H         0.03102   0.55046   0.37440   0.110825  
         H         H         0.03620   0.66940   0.34787   0.106217  
         H         H         0.11240   0.72718   0.48069   0.103525  
         H         H         0.10508   0.60931   0.50811   0.097174  
         H         H         0.77195   0.58229   0.29066   0.108073  
         H         H         0.85253   0.58447   0.23840   0.101092  
         H         H         0.95714   0.61747   0.36011   0.106199  
         H         H         0.87545   0.61942   0.41209   0.094555 

