
##########################################################################
#               Crystallographic Information Format file
#               Produced by PyCifRW module
#
#  This is a CIF file.  CIF has been adopted by the International
#  Union of Crystallography as the standard for data archiving and
#  transmission.
#
#  For information on this file format, follow the CIF links at
#  http://www.iucr.org
##########################################################################

data_image0

_cell_length_a                          41.9591
_cell_length_b                          42.2436
_cell_length_c                          8.061
_cell_angle_alpha                       79.5115
_cell_angle_beta                        83.6196
_cell_angle_gamma                       90.1198
_symmetry_space_group_name_H-M          'P 1'
_space_group_name_Hall                  'P 1'
loop_
  _atom_site_type_symbol
  _atom_site_label
  _atom_site_fract_x
  _atom_site_fract_y
  _atom_site_fract_z
  _atom_site_charge
         C         C         0.11783   0.58340   0.85892   -0.113186           
         H         H         0.12219   0.56310   0.79436   0.107556  
         C         C         0.14253   0.60581   0.85216   -0.155265           
         H         H         0.16593   0.60242   0.78663   0.132408  
         C         C         0.89175   0.42239   0.94470   -0.128613           
         H         H         0.88822   0.44565   0.86690   0.097916  
         C         C         0.86912   0.39766   0.95846   -0.147500           
         H         H         0.84784   0.40122   0.89214   0.133960  
         C         C         0.42602   0.11670   0.88753   -0.128576           
         H         H         0.44968   0.12264   0.81963   0.107576  
         C         C         0.40254   0.14000   0.87593   -0.142195           
         H         H         0.40753   0.16352   0.79677   0.138322  
         C         C         0.61314   0.92205   0.90069   -0.115728           
         H         H         0.61597   0.94341   0.80175   0.106029  
         C         C         0.63643   0.89857   0.90482   -0.148980           
         H         H         0.65747   0.90151   0.81115   0.135406  
         C         C         0.92510   0.61400   0.04615   -0.115309           
         H         H         0.94706   0.61661   0.10249   0.106168  
         C         C         0.90195   0.63745   0.04934   -0.143583           
         H         H         0.90599   0.65826   0.10667   0.131558  
         C         C         0.07828   0.38815   0.11867   -0.114655           
         H         H         0.05490   0.38376   0.19197   0.104185  
         C         C         0.10088   0.36399   0.13054   -0.143677           
         H         H         0.09556   0.34099   0.21476   0.136630  
         C         C         0.61253   0.08054   0.11746   -0.114712           
         H         H         0.61457   0.05845   0.20844   0.105280  
         C         C         0.63571   0.10495   0.09995   -0.151320           
         H         H         0.65601   0.10193   0.17395   0.135558  
         C         C         0.38720   0.92457   0.09226   -0.109205           
         H         H         0.38411   0.94490   0.15739   0.103544  
         C         C         0.36213   0.90218   0.10844   -0.145694           
         H         H         0.33967   0.90508   0.18453   0.136909  
         C         C         0.92474   0.38675   0.11802   -0.108508           
         H         H         0.94606   0.38260   0.18322   0.104825  
         C         C         0.90216   0.36186   0.13410   -0.147702           
         H         H         0.90570   0.33857   0.21162   0.138169  
         C         C         0.08199   0.61474   0.01585   -0.115779           
         H         H         0.05879   0.61759   0.08504   0.102840  
         C         C         0.10631   0.63759   0.00728   -0.148217           
         H         H         0.10245   0.65829   0.06933   0.135496  
         C         C         0.58149   0.88928   0.13828   -0.119333           
         H         H         0.56108   0.88630   0.23575   0.104177  
         C         C         0.60412   0.86521   0.14070   -0.150372           
         H         H         0.60110   0.84343   0.23683   0.133098  
         C         C         0.38866   0.07890   0.06970   -0.116008           
         H         H         0.38329   0.05521   0.14630   0.105389  
         C         C         0.36520   0.10219   0.06301   -0.147388           
         H         H         0.34191   0.09716   0.13695   0.138156  
         C         C         0.11598   0.42397   0.92562   -0.128206           
         H         H         0.12192   0.44723   0.84537   0.104310  
         C         C         0.13853   0.39978   0.93272   -0.144570           
         H         H         0.16167   0.40368   0.85619   0.137852  
         C         C         0.89090   0.58293   0.91215   -0.114414           
         H         H         0.88705   0.56270   0.85002   0.107379  
         C         C         0.86743   0.60611   0.91554   -0.152166           
         H         H         0.84545   0.60340   0.85926   0.130755  
         C         C         0.42047   0.89380   0.91959   -0.124163           
         H         H         0.44218   0.89141   0.83624   0.100749  
         C         C         0.39580   0.87092   0.93771   -0.147513           
         H         H         0.39840   0.85047   0.87283   0.133031  
         C         C         0.58267   0.11451   0.91896   -0.112250           
         H         H         0.56297   0.11800   0.84121   0.105454  
         C         C         0.60499   0.13948   0.90571   -0.154682           
         H         H         0.60206   0.16225   0.82217   0.133541  
         C         C         0.71927   0.74311   -0.00320  0.037154  
         C         C         0.71126   0.82897   0.05739   -0.080443           
         C         C         0.74254   0.83616   0.08310   -0.068864           
         C         C         0.76679   0.81392   0.06718   -0.133309           
         C         C         0.68645   0.85344   0.06794   0.430742  
         H         H         0.74753   0.85963   0.11328   0.128113  
         H         H         0.79109   0.82043   0.08515   0.112399  
         O         O         0.69195   0.87944   0.10901   -0.432292           
         C         C         0.24469   0.22168   0.94489   0.034475  
         C         C         0.33079   0.20987   0.02648   -0.088766           
         C         C         0.33742   0.23827   0.08219   -0.078097           
         C         C         0.31384   0.26121   0.09358   -0.133002           
         C         C         0.35618   0.18598   0.01825   0.427820  
         H         H         0.36125   0.24188   0.11757   0.128592  
         H         H         0.31984   0.28295   0.13867   0.110485  
         O         O         0.38303   0.19046   0.05919   -0.436717           
         C         C         0.07089   0.52966   -0.00017  0.180227  
         C         C         0.10088   0.51810   0.05277   -0.186880           
         H         H         0.12005   0.53311   0.07757   0.135347  
         C         C         0.02995   0.57160   0.93145   0.186728  
         C         C         0.02114   0.60433   0.86324   -0.188530           
         H         H         0.03749   0.62473   0.81905   0.130160  
         C         C         0.06162   0.56212   0.95846   -0.056480           
         C         C         0.08718   0.58700   0.94341   0.066290  
         C         C         0.13665   0.63293   0.92561   0.187954  
         C         C         0.72797   0.77481   0.01667   -0.003923           
         C         C         0.70365   0.79836   0.02293   0.030289  
         N         N         0.65567   0.84557   0.02832   -0.202593           
         C         C         0.28283   0.25662   0.05087   0.034476  
         C         C         0.29351   0.17556   0.92259   -0.083951           
         C         C         0.26334   0.17039   0.87462   -0.068956           
         C         C         0.23946   0.19308   0.88540   -0.129641           
         C         C         0.31806   0.15084   0.91099   0.431387  
         H         H         0.25903   0.14836   0.82781   0.126076  
         H         H         0.21638   0.18822   0.84502   0.110044  
         O         O         0.31292   0.12590   0.85829   -0.438248           
         C         C         0.76037   0.78351   0.03049   0.034339  
         C         C         0.67201   0.79102   0.99467   -0.085643           
         C         C         0.66460   0.76069   0.96289   -0.071342           
         C         C         0.68780   0.73699   0.96627   -0.130260           
         C         C         0.64671   0.81521   0.99505   0.427802  
         H         H         0.64030   0.75597   0.93724   0.127197  
         H         H         0.68126   0.71343   0.94263   0.111217  
         O         O         0.61919   0.80955   0.96671   -0.430548           
         C         C         0.93387   0.47450   0.02692   0.183542  
         C         C         0.90226   0.48346   0.08404   -0.186569           
         H         H         0.88197   0.46694   0.12263   0.136814  
         C         C         0.97733   0.43593   0.97633   0.191754  
         C         C         0.98825   0.40563   0.93040   -0.179484           
         H         H         0.97342   0.38741   0.89604   0.126216  
         C         C         0.94458   0.44357   0.00635   -0.055192           
         C         C         0.92017   0.41749   0.02282   0.068021  
         C         C         0.87433   0.36744   0.05449   0.187362  
         C         C         0.27561   0.22774   0.99242   -0.006457           
         C         C         0.30004   0.20433   0.98042   0.035622  
         N         N         0.34823   0.15727   0.96309   -0.201782           
         C         C         0.25578   0.72060   0.06358   0.037208  
         C         C         0.17967   0.71325   0.86413   -0.079815           
         C         C         0.17481   0.74535   0.79599   -0.068337           
         C         C         0.19626   0.76934   0.81505   -0.135781           
         C         C         0.15651   0.68857   0.84154   0.434613  
         H         H         0.15408   0.75106   0.72692   0.127373  
         H         H         0.19191   0.79403   0.75785   0.111904  
         O         O         0.13375   0.69484   0.75772   -0.440689           
         C         C         0.78564   0.24662   0.95854   0.036236  
         C         C         0.79409   0.32361   0.12435   -0.079190           
         C         C         0.76245   0.32816   0.18617   -0.070675           
         C         C         0.73841   0.30603   0.17516   -0.133434           
         C         C         0.81884   0.34770   0.13495   0.437085  
         H         H         0.75711   0.34918   0.24392   0.126154  
         H         H         0.71409   0.31018   0.22688   0.114177  
         O         O         0.81275   0.37152   0.20034   -0.442748           
         C         C         0.47533   0.06949   0.02680   0.178269  
         C         C         0.48484   0.09930   0.06855   -0.186873           
         H         H         0.46890   0.11879   0.08501   0.135345  
         C         C         0.43612   0.02936   0.96952   0.187854  
         C         C         0.40602   0.02194   0.91000   -0.193123           
         H         H         0.38803   0.03926   0.87358   0.121619  
         C         C         0.44452   0.06050   0.99423   -0.051815           
         C         C         0.41968   0.08556   0.98356   0.073928  
         C         C         0.37221   0.13275   0.96544   0.187568  
         C         C         0.22863   0.72947   0.97411   -0.004291           
         C         C         0.20670   0.70491   0.95228   0.033252  
         N         N         0.16172   0.65653   0.92241   -0.211315           
         C         C         0.74489   0.27894   0.09986   0.033115  
         C         C         0.83424   0.29101   0.99360   -0.086492           
         C         C         0.84195   0.26431   0.91934   -0.080024           
         C         C         0.81799   0.24268   0.90126   -0.130737           
         C         C         0.86018   0.31336   0.01073   0.429084  
         H         H         0.86696   0.26101   0.87471   0.129851  
         H         H         0.82488   0.22253   0.83945   0.112132  
         O         O         0.88873   0.30791   0.97488   -0.428370           
         C         C         0.22305   0.76231   0.90395   0.038036  
         C         C         0.21214   0.67216   0.01728   -0.092487           
         C         C         0.23892   0.66398   0.10224   -0.083282           
         C         C         0.26030   0.68780   0.12469   -0.136302           
         C         C         0.18997   0.64644   -0.00395  0.428542  
         H         H         0.24262   0.63866   0.15131   0.132092  
         H         H         0.28076   0.68042   0.19279   0.110849  
         O         O         0.19523   0.61764   0.04181   -0.434200           
         C         C         0.52852   0.93273   0.01807   0.182104  
         C         C         0.51736   0.90032   0.02690   -0.186531           
         H         H         0.53243   0.87958   0.03003   0.135421  
         C         C         0.57058   0.97545   0.01412   0.190558  
         C         C         0.60403   0.98519   0.01142   -0.187540           
         H         H         0.62452   0.96972   0.01080   0.126847  
         C         C         0.56059   0.94327   0.01589   -0.056493           
         C         C         0.58529   0.91806   0.01795   0.066497  
         C         C         0.63166   0.87015   0.02472   0.180063  
         C         C         0.77727   0.27372   0.03648   -0.004357           
         C         C         0.80192   0.29620   0.05126   0.036291  
         N         N         0.85056   0.34214   0.06668   -0.205029           
         C         C         0.27805   0.74569   0.08601   0.033309  
         C         C         0.28980   0.83570   0.96379   -0.085104           
         C         C         0.26268   0.84392   0.88178   -0.079259           
         C         C         0.24099   0.82012   0.86283   -0.131651           
         C         C         0.31253   0.86140   0.97921   0.429679  
         H         H         0.25898   0.86922   0.83242   0.130737  
         H         H         0.22041   0.82744   0.79564   0.111068  
         O         O         0.30762   0.89020   0.93196   -0.428992           
         C         C         0.76042   0.22407   0.94032   0.034094  
         C         C         0.67134   0.21108   0.05475   -0.091044           
         C         C         0.66362   0.23778   0.12889   -0.080128           
         C         C         0.68743   0.25995   0.14230   -0.136498           
         C         C         0.64569   0.18793   0.04461   0.425409  
         H         H         0.63874   0.24064   0.17723   0.128801  
         H         H         0.68052   0.28032   0.20227   0.111176  
         O         O         0.61730   0.19210   0.09176   -0.434490           
         C         C         0.93425   0.52858   0.01764   0.180727  
         C         C         0.90256   0.51617   0.08062   -0.186367           
         H         H         0.88266   0.53043   0.11902   0.134666  
         C         C         0.97769   0.57105   0.93767   0.189133  
         C         C         0.98864   0.60393   0.86536   -0.190011           
         H         H         0.97369   0.62383   0.82076   0.129686  
         C         C         0.94491   0.56118   0.97770   -0.059413           
         C         C         0.92020   0.58608   0.97857   0.065160  
         C         C         0.87293   0.63338   0.98473   0.177713  
         C         C         0.27271   0.77848   0.01370   -0.004600           
         C         C         0.29515   0.80301   0.03036   0.034181  
         N         N         0.34133   0.85128   0.04678   -0.205746           
         C         C         0.71973   0.25616   0.08371   0.037347  
         C         C         0.71121   0.17963   0.91345   -0.080176           
         C         C         0.74269   0.17572   0.84661   -0.069428           
         C         C         0.76680   0.19759   0.85991   -0.131476           
         C         C         0.68645   0.15565   0.90111   0.432655  
         H         H         0.74787   0.15537   0.78315   0.126175  
         H         H         0.79102   0.19387   0.80504   0.110936  
         O         O         0.69199   0.13299   0.82587   -0.442411           
         C         C         0.24541   0.78737   0.92570   0.035280  
         C         C         0.32269   0.79468   0.11415   -0.077291           
         C         C         0.32693   0.76276   0.18793   -0.067678           
         C         C         0.30479   0.73883   0.17556   -0.130378           
         C         C         0.34710   0.81923   0.12396   0.430803  
         H         H         0.34785   0.75703   0.25525   0.125386  
         H         H         0.30872   0.71432   0.23746   0.110650  
         O         O         0.37139   0.81271   0.19513   -0.437004           
         C         C         0.07066   0.47533   0.02160   0.176095  
         C         C         0.10075   0.48516   0.06523   -0.183458           
         H         H         0.11980   0.46903   0.10098   0.135665  
         C         C         0.02925   0.43579   0.98149   0.187534  
         C         C         0.02051   0.40539   0.93646   -0.186950           
         H         H         0.03703   0.38680   0.91166   0.123321  
         C         C         0.06084   0.44405   0.00691   -0.051508           
         C         C         0.08525   0.41867   0.01701   0.072170  
         C         C         0.13096   0.36988   0.03647   0.188275  
         C         C         0.72810   0.22905   0.00582   -0.005466           
         C         C         0.70350   0.20648   0.99160   0.033459  
         N         N         0.65536   0.15995   0.98113   -0.208275           
         C         C         0.74342   0.71829   0.01103   0.036498  
         C         C         0.83321   0.71406   0.96464   -0.079728           
         C         C         0.84177   0.74634   0.95207   -0.072340           
         C         C         0.81826   0.76897   0.97693   -0.130999           
         C         C         0.85800   0.69037   0.93451   0.427797  
         H         H         0.86706   0.75332   0.92473   0.130005  
         H         H         0.82573   0.79379   0.97258   0.111291  
         O         O         0.88525   0.69835   0.86674   -0.423515           
         C         C         0.21968   0.24533   0.95931   0.034487  
         C         C         0.20919   0.32658   0.08474   -0.079305           
         C         C         0.23951   0.33206   0.13015   -0.076881           
         C         C         0.26329   0.30924   0.12082   -0.134231           
         C         C         0.18478   0.35146   0.09352   0.429721  
         H         H         0.24400   0.35446   0.17308   0.126993  
         H         H         0.28653   0.31432   0.15852   0.114937  
         O         O         0.19031   0.37675   0.14213   -0.440016           
         C         C         0.52887   0.06844   0.04602   0.179801  
         C         C         0.51724   0.09858   0.08206   -0.186676           
         H         H         0.53181   0.11722   0.11416   0.137120  
         C         C         0.57101   0.02713   0.01977   0.189118  
         C         C         0.60437   0.01743   0.00886   -0.186245           
         H         H         0.62524   0.03287   0.00186   0.128624  
         C         C         0.56120   0.05872   0.03362   -0.059205           
         C         C         0.58569   0.08454   0.02567   0.064222  
         C         C         0.63174   0.13442   0.99393   0.185504  
         C         C         0.77625   0.72798   0.00348   -0.004036           
         C         C         0.80046   0.70442   -0.00236  0.031425  
         N         N         0.84856   0.65732   0.98936   -0.210281           
         C         C         0.25786   0.28035   0.06440   0.034206  
         C         C         0.17150   0.29189   0.98590   -0.091388           
         C         C         0.16492   0.26349   0.93030   -0.073956           
         C         C         0.18866   0.24077   0.91668   -0.128904           
         C         C         0.14607   0.31575   0.99411   0.429045  
         H         H         0.14102   0.25974   0.89599   0.128046  
         H         H         0.18274   0.21921   0.86986   0.110882  
         O         O         0.11895   0.31111   0.95729   -0.432690           
         C         C         0.78548   0.76054   0.00316   0.036160  
         C         C         0.79167   0.67138   0.02678   -0.086391           
         C         C         0.75940   0.66210   0.04717   -0.068354           
         C         C         0.73571   0.68535   0.03339   -0.130709           
         C         C         0.81641   0.64673   0.04891   0.428750  
         H         H         0.75324   0.63651   0.07322   0.127541  
         H         H         0.71074   0.67752   0.04500   0.111078  
         O         O         0.80969   0.61859   0.11562   -0.427383           
         C         C         0.47442   0.93300   0.01526   0.182165  
         C         C         0.48455   0.90034   0.03208   -0.185660           
         H         H         0.46890   0.87953   0.04422   0.136199  
         C         C         0.43580   0.97777   0.96659   0.191289  
         C         C         0.40588   0.98990   0.90621   -0.180409           
         H         H         0.38787   0.97598   0.86283   0.128477  
         C         C         0.44338   0.94465   0.99240   -0.054075           
         C         C         0.41702   0.92087   -0.00087  0.063561  
         C         C         0.36675   0.87505   0.03353   0.183848  
         C         C         0.22685   0.27418   0.01827   -0.006884           
         C         C         0.20241   0.29757   0.03013   0.037059  
         N         N         0.15449   0.34491   0.04365   -0.200043           
         N         N         0.00324   0.55154   0.97017   -0.399862           
         N         N         0.00281   0.45458   -0.00089  -0.400274           
         N         N         0.45444   0.00230   -0.00190  -0.396835           
         N         N         0.55088   0.00132   0.01943   -0.399708           
         N         N         0.05310   0.50289   0.98737   -0.255137           
         H         H         0.02961   0.50308   0.96498   0.276134  
         N         N         0.95247   0.50241   0.99146   -0.253735           
         H         H         0.97676   0.50323   0.96078   0.277963  
         N         N         0.50259   0.05130   0.01824   -0.254387           
         H         H         0.50317   0.02816   -0.00261  0.273621  
         N         N         0.50172   0.95163   0.01121   -0.252331           
         H         H         0.50181   0.97597   0.00630   0.272731  
         C         C         0.11443   0.57700   0.35443   -0.117848           
         H         H         0.11859   0.55647   0.29172   0.101147  
         C         C         0.13906   0.59969   0.34348   -0.149705           
         H         H         0.16215   0.59688   0.27291   0.136008  
         C         C         0.88757   0.41768   0.44094   -0.121201           
         H         H         0.88430   0.44072   0.36062   0.097735  
         C         C         0.86478   0.39308   0.45537   -0.152129           
         H         H         0.84372   0.39657   0.38730   0.136151  
         C         C         0.42176   0.10973   0.38038   -0.122073           
         H         H         0.44539   0.11464   0.31066   0.102469  
         C         C         0.39909   0.13379   0.36945   -0.146751           
         H         H         0.40454   0.15713   0.28893   0.137626  
         C         C         0.61114   0.91882   0.40984   -0.112358           
         H         H         0.61355   0.93998   0.30955   0.107182  
         C         C         0.63486   0.89576   0.41406   -0.147018           
         H         H         0.65585   0.89910   0.31997   0.132929  
         C         C         0.92272   0.60932   0.54080   -0.114850           
         H         H         0.94451   0.61121   0.59994   0.108685  
         C         C         0.90002   0.63323   0.54373   -0.144919           
         H         H         0.90438   0.65379   0.60248   0.132586  
         C         C         0.07467   0.38181   0.61751   -0.118086           
         H         H         0.05129   0.37680   0.69008   0.109231  
         C         C         0.09761   0.35796   0.62795   -0.142202           
         H         H         0.09258   0.33479   0.71079   0.139320  
         C         C         0.60720   0.07680   0.61480   -0.117892           
         H         H         0.60939   0.05457   0.70449   0.104187  
         C         C         0.63041   0.10118   0.59770   -0.144807           
         H         H         0.65081   0.09796   0.67100   0.132969  
         C         C         0.38507   0.91689   0.58976   -0.101746           
         H         H         0.38192   0.93676   0.65831   0.108888  
         C         C         0.35992   0.89470   0.60314   -0.155290           
         H         H         0.33736   0.89800   0.67727   0.132046  
         C         C         0.91973   0.38250   0.62169   -0.108451           
         H         H         0.94044   0.37856   0.69195   0.110005  
         C         C         0.89739   0.35752   0.63485   -0.151051           
         H         H         0.90095   0.33428   0.71266   0.134953  
         C         C         0.07883   0.60825   0.51317   -0.123164           
         H         H         0.05574   0.61101   0.58380   0.102463  
         C         C         0.10325   0.63104   0.50368   -0.143858           
         H         H         0.09949   0.65179   0.56546   0.133626  
         C         C         0.58009   0.88585   0.64879   -0.117575           
         H         H         0.55970   0.88260   0.74641   0.103427  
         C         C         0.60311   0.86213   0.65077   -0.150935           
         H         H         0.60047   0.84041   0.74735   0.132789  
         C         C         0.38359   0.07284   0.56314   -0.122333           
         H         H         0.37736   0.04913   0.63764   0.112841  
         C         C         0.36099   0.09701   0.55805   -0.145770           
         H         H         0.33758   0.09260   0.63152   0.137866  
         C         C         0.11183   0.41813   0.42381   -0.120059           
         H         H         0.11722   0.44129   0.34154   0.100706  
         C         C         0.13475   0.39432   0.43023   -0.148482           
         H         H         0.15774   0.39850   0.35229   0.136120  
         C         C         0.88806   0.57931   0.40359   -0.117645           
         H         H         0.88383   0.55918   0.34150   0.103551  
         C         C         0.86506   0.60292   0.40692   -0.149293           
         H         H         0.84308   0.60084   0.34954   0.131815  
         C         C         0.41831   0.88653   0.41498   -0.118897           
         H         H         0.44005   0.88426   0.33164   0.102137  
         C         C         0.39374   0.86350   0.43300   -0.155024           
         H         H         0.39639   0.84316   0.36745   0.135299  
         C         C         0.57679   0.11135   0.42170   -0.116584           
         H         H         0.55654   0.11515   0.34795   0.100906  
         C         C         0.59950   0.13610   0.40605   -0.148954           
         H         H         0.59680   0.15895   0.32264   0.136947  
         C         C         0.71813   0.74047   0.49678   0.036709  
         C         C         0.71022   0.82605   0.56283   -0.082819           
         C         C         0.74139   0.83284   0.59206   -0.069219           
         C         C         0.76560   0.81056   0.57568   -0.130234           
         C         C         0.68535   0.85048   0.57466   0.428889  
         H         H         0.74634   0.85599   0.62608   0.127651  
         H         H         0.78979   0.81673   0.59700   0.111414  
         O         O         0.69061   0.87631   0.61800   -0.432766           
         C         C         0.24186   0.21678   0.43014   0.031270  
         C         C         0.32802   0.20523   0.51263   -0.086403           
         C         C         0.33443   0.23359   0.56897   -0.073505           
         C         C         0.31074   0.25642   0.58042   -0.131929           
         C         C         0.35341   0.18124   0.50773   0.430580  
         H         H         0.35815   0.23720   0.60577   0.126313  
         H         H         0.31656   0.27797   0.62770   0.111137  
         O         O         0.38016   0.18561   0.54999   -0.435727           
         C         C         0.06708   0.52333   0.49782   0.180252  
         C         C         0.09676   0.51159   0.55398   -0.182242           
         H         H         0.11554   0.52648   0.58389   0.136772  
         C         C         0.02673   0.56566   0.42652   0.188656  
         C         C         0.01840   0.59858   0.35930   -0.185684           
         H         H         0.03500   0.61878   0.31663   0.127688  
         C         C         0.05820   0.55584   0.45531   -0.052706           
         C         C         0.08393   0.58056   0.44039   0.067589  
         C         C         0.13337   0.62666   0.41875   0.185185  
         C         C         0.72690   0.77203   0.51859   -0.004431           
         C         C         0.70268   0.79570   0.52467   0.030487  
         N         N         0.65465   0.84281   0.53388   -0.200603           
         C         C         0.27986   0.25185   0.53608   0.035992  
         C         C         0.29082   0.17084   0.40846   -0.082977           
         C         C         0.26059   0.16536   0.36180   -0.074028           
         C         C         0.23663   0.18797   0.37261   -0.132358           
         C         C         0.31555   0.14632   0.39753   0.428544  
         H         H         0.25629   0.14316   0.31666   0.126646  
         H         H         0.21342   0.18284   0.33447   0.111967  
         O         O         0.31090   0.12162   0.34163   -0.437981           
         C         C         0.75925   0.78045   0.53521   0.036249  
         C         C         0.67119   0.78870   0.49271   -0.083080           
         C         C         0.66377   0.75856   0.45841   -0.072123           
         C         C         0.68677   0.73465   0.46342   -0.132556           
         C         C         0.64602   0.81304   0.49251   0.426085  
         H         H         0.63960   0.75416   0.42964   0.127069  
         H         H         0.68017   0.71119   0.43872   0.113223  
         O         O         0.61883   0.80799   0.45773   -0.430940           
         C         C         0.92991   0.46992   0.52015   0.181391  
         C         C         0.89830   0.47918   0.57572   -0.187491           
         H         H         0.87791   0.46276   0.61412   0.138187  
         C         C         0.97303   0.43041   0.47586   0.187486  
         C         C         0.98335   0.39937   0.43722   -0.182203           
         H         H         0.96812   0.38073   0.41010   0.126890  
         C         C         0.94038   0.43875   0.50343   -0.056629           
         C         C         0.91566   0.41293   0.52209   0.067962  
         C         C         0.86996   0.36296   0.55218   0.187750  
         C         C         0.27282   0.22300   0.47693   -0.003127           
         C         C         0.29732   0.19965   0.46558   0.033782  
         N         N         0.34531   0.15240   0.45437   -0.199691           
         C         C         0.25217   0.71428   0.55994   0.038060  
         C         C         0.17607   0.70728   0.35984   -0.075472           
         C         C         0.17134   0.73944   0.29216   -0.070198           
         C         C         0.19300   0.76334   0.31043   -0.131230           
         C         C         0.15249   0.68265   0.34093   0.429156  
         H         H         0.15058   0.74536   0.22380   0.126729  
         H         H         0.18877   0.78809   0.25345   0.114746  
         O         O         0.12872   0.68908   0.26507   -0.436473           
         C         C         0.78151   0.24231   0.45242   0.036203  
         C         C         0.79025   0.31863   0.62482   -0.082833           
         C         C         0.75868   0.32291   0.68911   -0.068954           
         C         C         0.73454   0.30116   0.67497   -0.135396           
         C         C         0.81515   0.34220   0.64031   0.432179  
         H         H         0.75353   0.34336   0.75185   0.126646  
         H         H         0.71028   0.30510   0.72847   0.111278  
         O         O         0.80964   0.36489   0.71555   -0.444372           
         C         C         0.47019   0.06308   0.51895   0.181783  
         C         C         0.47833   0.09232   0.57108   -0.187251           
         H         H         0.46116   0.11035   0.59573   0.131073  
         C         C         0.43150   0.02249   0.46114   0.187930  
         C         C         0.40100   0.01409   0.40904   -0.194238           
         H         H         0.38192   0.03046   0.37781   0.130197  
         C         C         0.43953   0.05369   0.48557   -0.051901           
         C         C         0.41468   0.07876   0.47655   0.074104  
         C         C         0.36879   0.12741   0.46010   0.189146  
         C         C         0.22519   0.72330   0.46926   -0.006125           
         C         C         0.20326   0.69880   0.44647   0.034274  
         N         N         0.15839   0.65038   0.41477   -0.206323           
         C         C         0.74091   0.27453   0.59565   0.036569  
         C         C         0.83007   0.28689   0.48506   -0.093170           
         C         C         0.83769   0.26029   0.40991   -0.082421           
         C         C         0.81379   0.23843   0.39398   -0.134995           
         C         C         0.85591   0.30965   0.49748   0.427555  
         H         H         0.86261   0.25730   0.36255   0.132355  
         H         H         0.82058   0.21828   0.33209   0.110193  
         O         O         0.88425   0.30510   0.45092   -0.433773           
         C         C         0.21978   0.75620   0.39932   0.031871  
         C         C         0.20885   0.66598   0.50903   -0.086296           
         C         C         0.23548   0.65766   0.59515   -0.077093           
         C         C         0.25661   0.68143   0.62053   -0.135789           
         C         C         0.18699   0.64025   0.48450   0.431027  
         H         H         0.23924   0.63229   0.64256   0.128627  
         H         H         0.27689   0.67398   0.69001   0.113173  
         O         O         0.19259   0.61142   0.52551   -0.433009           
         C         C         0.52611   0.92795   0.52156   0.179785  
         C         C         0.51571   0.89528   0.53049   -0.187550           
         H         H         0.53128   0.87486   0.53658   0.136081  
         C         C         0.56740   0.97167   0.51456   0.190771  
         C         C         0.60068   0.98226   0.50939   -0.189894           
         H         H         0.62155   0.96729   0.50983   0.126129  
         C         C         0.55796   0.93914   0.52109   -0.056207           
         C         C         0.58329   0.91448   0.52704   0.065074  
         C         C         0.63050   0.86729   0.53353   0.176671  
         C         C         0.77322   0.26937   0.53098   -0.004343           
         C         C         0.79789   0.29175   0.54666   0.034888  
         N         N         0.84643   0.33752   0.56295   -0.210260           
         C         C         0.27431   0.73930   0.58497   0.035171  
         C         C         0.28724   0.82899   0.45760   -0.093477           
         C         C         0.26041   0.83741   0.37357   -0.078362           
         C         C         0.23833   0.81385   0.35617   -0.134085           
         C         C         0.31057   0.85440   0.46845   0.425627  
         H         H         0.25747   0.86269   0.32065   0.129049  
         H         H         0.21808   0.82133   0.28658   0.110960  
         O         O         0.30629   0.88310   0.41425   -0.430874           
         C         C         0.75631   0.21960   0.43606   0.033245  
         C         C         0.66711   0.20737   0.54612   -0.085076           
         C         C         0.65945   0.23407   0.62032   -0.080903           
         C         C         0.68342   0.25581   0.63692   -0.132105           
         C         C         0.64121   0.18487   0.53075   0.429241  
         H         H         0.63450   0.23726   0.66624   0.129693  
         H         H         0.67661   0.27592   0.69912   0.111861  
         O         O         0.61269   0.19044   0.56664   -0.430810           
         C         C         0.93064   0.52399   0.51003   0.180641  
         C         C         0.89884   0.51190   0.57221   -0.186577           
         H         H         0.87908   0.52634   0.61080   0.137316  
         C         C         0.97452   0.56591   0.43225   0.189279  
         C         C         0.98594   0.59871   0.36190   -0.185086           
         H         H         0.97131   0.61900   0.31951   0.125804  
         C         C         0.94165   0.55648   0.47077   -0.060752           
         C         C         0.91734   0.58174   0.47142   0.065100  
         C         C         0.87102   0.62991   0.47768   0.175032  
         C         C         0.26929   0.77209   0.51172   -0.003764           
         C         C         0.29191   0.79642   0.52884   0.033818  
         N         N         0.33888   0.84418   0.54066   -0.208462           
         C         C         0.71570   0.25195   0.57811   0.036488  
         C         C         0.70708   0.17472   0.41496   -0.079226           
         C         C         0.73866   0.17022   0.35179   -0.068785           
         C         C         0.76272   0.19246   0.36115   -0.133483           
         C         C         0.68235   0.15038   0.40709   0.436632  
         H         H         0.74397   0.14911   0.29486   0.126767  
         H         H         0.78702   0.18825   0.30927   0.114752  
         O         O         0.68849   0.12653   0.34214   -0.438967           
         C         C         0.24224   0.78113   0.42153   0.037227  
         C         C         0.31899   0.78805   0.61677   -0.080530           
         C         C         0.32273   0.75614   0.69261   -0.071036           
         C         C         0.30068   0.73232   0.67735   -0.134947           
         C         C         0.34337   0.81255   0.62883   0.430898  
         H         H         0.34322   0.75032   0.76345   0.126934  
         H         H         0.30432   0.70778   0.73971   0.113266  
         O         O         0.36658   0.80642   0.70942   -0.439713           
         C         C         0.06666   0.46909   0.51783   0.181093  
         C         C         0.09659   0.47870   0.56442   -0.186384           
         H         H         0.11531   0.46227   0.60128   0.132554  
         C         C         0.02503   0.42960   0.47980   0.186464  
         C         C         0.01565   0.39876   0.44186   -0.189175           
         H         H         0.03151   0.37935   0.42178   0.127428  
         C         C         0.05670   0.43775   0.50439   -0.052694           
         C         C         0.08120   0.41244   0.51595   0.072679  
         C         C         0.12750   0.36425   0.53262   0.185840  
         C         C         0.72399   0.22484   0.50021   -0.004249           
         C         C         0.69935   0.20224   0.48711   0.035202  
         N         N         0.65073   0.15588   0.47703   -0.204373           
         C         C         0.74211   0.71547   0.51201   0.037458  
         C         C         0.83189   0.71085   0.46654   -0.081389           
         C         C         0.84054   0.74306   0.45564   -0.069775           
         C         C         0.81712   0.76574   0.48178   -0.129045           
         C         C         0.85655   0.68714   0.43367   0.427011  
         H         H         0.86584   0.75000   0.42866   0.129790  
         H         H         0.82464   0.79052   0.47816   0.111382  
         O         O         0.88384   0.69518   0.36652   -0.425125           
         C         C         0.21675   0.24039   0.44450   0.035633  
         C         C         0.20581   0.32121   0.57498   -0.085683           
         C         C         0.23606   0.32660   0.62145   -0.068559           
         C         C         0.26006   0.30413   0.60883   -0.135386           
         C         C         0.18109   0.34561   0.58870   0.431499  
         H         H         0.24030   0.34862   0.66863   0.125827  
         H         H         0.28324   0.30918   0.64738   0.114850  
         O         O         0.18585   0.37033   0.64408   -0.441060           
         C         C         0.52361   0.06361   0.54035   0.179251  
         C         C         0.51069   0.09258   0.58575   -0.182978           
         H         H         0.52440   0.11087   0.62668   0.136330  
         C         C         0.56681   0.02359   0.51348   0.190154  
         C         C         0.60037   0.01460   0.50220   -0.183424           
         H         H         0.62097   0.03056   0.49176   0.128571  
         C         C         0.55624   0.05491   0.52809   -0.056405           
         C         C         0.58016   0.08104   0.52444   0.063911  
         C         C         0.62665   0.13069   0.49145   0.185163  
         C         C         0.77496   0.72497   0.50605   -0.004649           
         C         C         0.79908   0.70134   0.49921   0.031531  
         N         N         0.84693   0.65409   0.48473   -0.209462           
         C         C         0.25481   0.27546   0.54997   0.033800  
         C         C         0.16840   0.28684   0.47164   -0.090100           
         C         C         0.16192   0.25842   0.41576   -0.075615           
         C         C         0.18568   0.23567   0.40278   -0.136288           
         C         C         0.14289   0.31064   0.48072   0.426717  
         H         H         0.13802   0.25460   0.38166   0.128839  
         H         H         0.17975   0.21398   0.35711   0.113685  
         O         O         0.11589   0.30629   0.44122   -0.433982           
         C         C         0.78431   0.75743   0.50735   0.035243  
         C         C         0.79016   0.66835   0.52682   -0.083894           
         C         C         0.75787   0.65921   0.54670   -0.068932           
         C         C         0.73429   0.68257   0.53290   -0.132334           
         C         C         0.81484   0.64361   0.54753   0.429259  
         H         H         0.75163   0.63363   0.57150   0.127232  
         H         H         0.70931   0.67483   0.54323   0.111148  
         O         O         0.80816   0.61552   0.61521   -0.424607           
         C         C         0.47212   0.92706   0.51067   0.181525  
         C         C         0.48297   0.89463   0.52994   -0.186976           
         H         H         0.46781   0.87351   0.53993   0.137738  
         C         C         0.43223   0.97077   0.46103   0.186340  
         C         C         0.40148   0.98197   0.40750   -0.181705           
         H         H         0.38298   0.96743   0.37258   0.126638  
         C         C         0.44079   0.93788   0.48665   -0.057877           
         C         C         0.41480   0.91354   0.49501   0.063214  
         C         C         0.36455   0.86770   0.52756   0.186213  
         C         C         0.22384   0.26927   0.50329   -0.004654           
         C         C         0.19928   0.29252   0.51640   0.034553  
         N         N         0.15109   0.33937   0.53492   -0.201746           
         N         N         -0.00023  0.54596   0.46430   -0.402298           
         N         N         0.99890   0.44895   0.49397   -0.396826           
         N         N         0.45058   0.99594   0.48730   -0.395460           
         N         N         0.54720   0.99722   0.51664   -0.400295           
         N         N         0.04931   0.49673   0.48251   -0.254175           
         H         H         0.02593   0.49702   0.45802   0.276598  
         N         N         0.94870   0.49769   0.48430   -0.253095           
         H         H         0.97304   0.49841   0.45538   0.277895  
         N         N         0.49817   0.04611   0.50555   -0.251660           
         H         H         0.49990   0.02348   0.47800   0.275887  
         N         N         0.49891   0.94630   0.50991   -0.253090           
         H         H         0.49832   0.97065   0.50509   0.272978 

