
##########################################################################
#               Crystallographic Information Format file
#               Produced by PyCifRW module
#
#  This is a CIF file.  CIF has been adopted by the International
#  Union of Crystallography as the standard for data archiving and
#  transmission.
#
#  For information on this file format, follow the CIF links at
#  http://www.iucr.org
##########################################################################

data_image0

_cell_length_a                          36.8687
_cell_length_b                          36.7539
_cell_length_c                          8.54894
_cell_angle_alpha                       90.1928
_cell_angle_beta                        91.006
_cell_angle_gamma                       89.6311
_symmetry_space_group_name_H-M          'P 1'
_space_group_name_Hall                  'P 1'
loop_
  _atom_site_type_symbol
  _atom_site_label
  _atom_site_fract_x
  _atom_site_fract_y
  _atom_site_fract_z
  _atom_site_charge
         C         C         0.27222   0.88271   -0.00391  0.195011  
         C         C         0.24140   0.90781   0.99148   -0.191410           
         N         N         0.26059   0.84759   0.01751   -0.407824           
         C         C         0.21156   0.88786   0.02310   -0.189413           
         H         H         0.24218   0.93669   0.96900   0.119568  
         C         C         0.22348   0.85003   0.03165   0.196607  
         H         H         0.18433   0.89809   0.03842   0.120902  
         C         C         0.19932   0.82027   0.04297   -0.072132           
         C         C         0.21054   0.78329   0.03541   0.182718  
         C         C         0.18782   0.75176   0.03209   -0.190125           
         N         N         0.24585   0.77034   0.03229   -0.253955           
         C         C         0.20956   0.72134   0.03747   -0.192785           
         H         H         0.15856   0.75216   0.02527   0.130039  
         C         C         0.24659   0.73265   0.03328   0.182762  
         H         H         0.20061   0.69347   0.04271   0.128343  
         C         C         0.37488   0.71659   0.02121   -0.195185           
         C         C         0.34436   0.69645   0.00335   -0.187589           
         C         C         0.31375   0.72155   0.01766   0.191498  
         N         N         0.32575   0.75678   0.02975   -0.403661           
         H         H         0.40248   0.70658   0.02443   0.120363  
         H         H         0.34290   0.66750   0.98241   0.119399  
         C         C         0.38720   0.78431   0.03636   -0.070904           
         C         C         0.37588   0.82111   0.02673   0.180511  
         C         C         0.39855   0.85258   0.02347   -0.194534           
         N         N         0.34048   0.83379   0.01546   -0.252059           
         C         C         0.37666   0.88288   0.01550   -0.193005           
         H         H         0.42784   0.85219   0.02722   0.127578  
         C         C         0.33960   0.87135   0.00573   0.183131  
         H         H         0.38552   0.91082   0.01679   0.131023  
         C         C         0.30879   0.89432   0.98898   -0.070768           
         C         C         0.27732   0.70957   0.02569   -0.069414           
         C         C         0.36307   0.75443   0.03153   0.193272  
         H         H         0.26800   0.78694   0.03201   0.271948  
         H         H         0.31841   0.81707   0.01380   0.271108  
         C         C         0.15965   0.82651   0.06098   0.059500  
         C         C         0.13993   0.80384   0.16101   -0.111731           
         C         C         0.13925   0.85277   0.97599   -0.113625           
         C         C         0.10221   0.80436   0.16232   -0.200506           
         H         H         0.15461   0.78545   0.23910   0.103078  
         C         C         0.10174   0.85590   0.98866   -0.172951           
         H         H         0.15259   0.86957   0.89036   0.110241  
         C         C         0.08243   0.83027   0.07519   0.203709  
         H         H         0.08788   0.78557   0.23686   0.105186  
         H         H         0.08677   0.87575   0.91855   0.127071  
         C         C         0.42706   0.77764   0.04713   0.060115  
         C         C         0.44475   0.75168   0.95263   -0.115613           
         C         C         0.44915   0.79810   0.15046   -0.116851           
         C         C         0.48206   0.74582   0.96280   -0.176457           
         H         H         0.42918   0.73700   0.86404   0.110930  
         C         C         0.48681   0.79476   0.15110   -0.198864           
         H         H         0.43648   0.81663   0.23286   0.105090  
         C         C         0.50381   0.76856   0.05693   0.203007  
         H         H         0.49502   0.72588   0.88756   0.127760  
         H         H         0.50331   0.81119   0.23052   0.105971  
         C         C         0.31653   0.93371   0.96799   0.059240  
         C         C         0.34365   0.94527   0.86466   -0.114940           
         C         C         0.29878   0.96097   0.05458   -0.111064           
         C         C         0.35411   0.98144   0.85538   -0.175558           
         H         H         0.35657   0.92518   0.79002   0.102189  
         C         C         0.30687   0.99763   0.03589   -0.195579           
         H         H         0.27959   0.95319   0.14321   0.109834  
         C         C         0.33525   0.00839   0.93886   0.202742  
         H         H         0.37553   0.98956   0.77719   0.126576  
         H         H         0.29341   0.01804   0.10716   0.104071  
         C         C         0.27130   0.66954   0.02941   0.059302  
         C         C         0.29315   0.64720   0.12676   -0.108306           
         C         C         0.24470   0.65199   0.93594   -0.121083           
         C         C         0.29080   0.60941   0.12185   -0.195740           
         H         H         0.31200   0.65995   0.20900   0.107802  
         C         C         0.24003   0.61446   0.94029   -0.172336           
         H         H         0.22832   0.66791   0.85395   0.108549  
         C         C         0.26415   0.59245   0.02792   0.202897  
         H         H         0.30810   0.59287   0.19805   0.108032  
         H         H         0.21945   0.60146   0.86694   0.124823  
         C         C         0.55914   0.79273   0.00115   0.068490  
         H         H         0.54422   0.81645   0.95384   0.062082  
         C         C         0.28722   0.53439   0.98538   0.064196  
         H         H         0.31266   0.54629   0.94409   0.066882  
         C         C         0.28546   0.49467   0.98958   0.047415  
         C         C         0.31026   0.47340   0.90535   -0.131332           
         C         C         0.25888   0.47700   0.07709   -0.101777           
         C         C         0.30778   0.43556   0.90330   -0.134399           
         H         H         0.33079   0.48681   0.83632   0.104973  
         C         C         0.25717   0.43931   0.07865   -0.131613           
         H         H         0.24058   0.49352   0.14668   0.116270  
         C         C         0.28121   0.41768   0.99046   0.070847  
         H         H         0.32563   0.41976   0.82889   0.106545  
         H         H         0.23758   0.42594   0.15240   0.110142  
         C         C         0.27624   0.37775   0.98867   0.026205  
         C         C         0.24060   0.36504   0.97771   -0.186441           
         C         C         0.30504   0.35188   0.00183   0.032056  
         C         C         0.23160   0.32818   0.97755   0.027872  
         H         H         0.21864   0.38487   0.97049   0.108273  
         C         C         0.29698   0.31369   -0.00309  0.004579  
         C         C         0.34201   0.36237   0.02126   -0.130617           
         C         C         0.26003   0.30188   0.98336   0.031627  
         C         C         0.19262   0.31887   0.97274   0.068980  
         C         C         0.32586   0.28725   0.00665   0.002613  
         C         C         0.36945   0.33725   0.03099   -0.138079           
         H         H         0.34851   0.39108   0.02893   0.105834  
         C         C         0.25312   0.26378   0.97627   -0.129373           
         C         C         0.16887   0.33794   0.87117   -0.133749           
         C         C         0.17770   0.29293   0.07397   -0.136279           
         C         C         0.31778   0.24914   0.99369   0.035889  
         C         C         0.36268   0.29904   0.02930   0.033563  
         H         H         0.39722   0.34666   0.04027   0.105471  
         C         C         0.28059   0.23869   0.98322   -0.136942           
         H         H         0.22529   0.25455   0.96544   0.108795  
         C         C         0.13185   0.33099   0.86911   -0.120537           
         H         H         0.17992   0.35746   0.78968   0.107285  
         C         C         0.14055   0.28655   0.07485   -0.107106           
         H         H         0.19535   0.27893   0.15766   0.106138  
         C         C         0.34685   0.22328   0.99471   0.022223  
         C         C         0.39083   0.27248   0.04798   0.019094  
         H         H         0.27395   0.20998   0.98175   0.107414  
         C         C         0.11709   0.30552   0.97205   0.048388  
         H         H         0.11411   0.34535   0.78673   0.106547  
         H         H         0.12911   0.26730   0.15649   0.116571  
         C         C         0.38191   0.23578   0.02744   -0.180738           
         C         C         0.34172   0.18400   0.96404   0.070906  
         C         C         0.42927   0.28145   0.08161   0.073671  
         H         H         0.40359   0.21570   0.03656   0.106552  
         C         C         0.31526   0.17126   0.85648   -0.136007           
         C         C         0.36388   0.15774   0.04049   -0.130602           
         C         C         0.44038   0.31094   0.17666   -0.136029           
         C         C         0.45690   0.25934   0.01776   -0.130090           
         C         C         0.30898   0.13422   0.83727   -0.129562           
         H         H         0.30004   0.19062   0.78499   0.110050  
         C         C         0.35895   0.12076   0.01506   -0.106668           
         H         H         0.38399   0.16652   0.12702   0.109352  
         C         C         0.47699   0.31931   0.19814   -0.123347           
         H         H         0.42017   0.32663   0.23936   0.109559  
         C         C         0.49329   0.26671   0.04415   -0.107736           
         H         H         0.44951   0.23697   0.94027   0.111721  
         C         C         0.33060   0.10839   0.91658   0.048504  
         H         H         0.28796   0.12501   0.75561   0.107524  
         H         H         0.37554   0.10068   0.07691   0.116935  
         C         C         0.50408   0.29743   0.13164   0.044761  
         H         H         0.48468   0.34222   0.27250   0.112018  
         H         H         0.51422   0.24989   0.99166   0.111689  
         N         N         0.26006   0.55457   0.02435   -0.270129           
         N         N         0.54190   0.76514   0.05432   -0.272517           
         C         C         0.82179   0.60299   0.87644   0.044241  
         C         C         0.79884   0.62761   0.79643   -0.127492           
         C         C         0.84901   0.61687   0.97701   -0.104512           
         C         C         0.80278   0.66499   0.81675   -0.136465           
         H         H         0.77850   0.61725   0.71415   0.105736  
         C         C         0.85214   0.65413   0.00080   -0.130492           
         H         H         0.86649   0.59774   0.04005   0.117328  
         C         C         0.82881   0.67904   0.92282   0.070100  
         H         H         0.78622   0.68367   0.74718   0.106526  
         H         H         0.87191   0.66431   0.08593   0.109184  
         C         C         0.83281   0.71855   0.95062   0.026914  
         C         C         0.86790   0.73243   0.96410   -0.185989           
         C         C         0.80290   0.74299   0.96527   0.034022  
         C         C         0.87579   0.76946   0.98167   0.022068  
         H         H         0.89039   0.71323   0.95954   0.106212  
         C         C         0.80956   0.78126   0.98252   0.001046  
         C         C         0.76626   0.73074   0.96628   -0.130915           
         C         C         0.84617   0.79464   0.98663   0.036796  
         C         C         0.91460   0.77969   0.99029   0.071756  
         C         C         0.77945   0.80619   0.99394   0.003774  
         C         C         0.73767   0.75441   0.97603   -0.133926           
         H         H         0.76104   0.70175   0.95914   0.106604  
         C         C         0.85117   0.83302   -0.00338  -0.133511           
         C         C         0.94004   0.75885   0.90626   -0.135193           
         C         C         0.92828   0.80862   0.08302   -0.134197           
         C         C         0.78592   0.84462   0.00626   0.034466  
         C         C         0.74293   0.79265   0.99154   0.035788  
         H         H         0.71023   0.74387   0.97234   0.106471  
         C         C         0.82264   0.85660   0.01129   -0.132519           
         H         H         0.87836   0.84399   0.99267   0.109001  
         C         C         0.97695   0.76608   0.91615   -0.122342           
         H         H         0.93049   0.73752   0.82764   0.111065  
         C         C         0.96502   0.81698   0.08758   -0.105722           
         H         H         0.91009   0.82358   0.15868   0.111171  
         C         C         0.75592   0.86926   0.01156   0.022397  
         C         C         0.71341   0.81764   0.00226   0.022433  
         H         H         0.82827   0.88531   0.02655   0.108781  
         C         C         0.99006   0.79557   0.00533   0.050802  
         H         H         0.99593   0.74967   0.84925   0.111027  
         H         H         0.97517   0.83915   0.16038   0.116766  
         C         C         0.72096   0.85480   0.01167   -0.187511           
         C         C         0.75933   0.90932   0.01444   0.072025  
         C         C         0.67456   0.80758   -0.00333  0.073387  
         H         H         0.69815   0.87359   0.01761   0.102913  
         C         C         0.78591   0.92780   0.92869   -0.132279           
         C         C         0.73436   0.93067   0.09861   -0.135929           
         C         C         0.65960   0.77876   0.08265   -0.136728           
         C         C         0.65057   0.82966   0.90792   -0.133245           
         C         C         0.78915   0.96533   0.93641   -0.106998           
         H         H         0.80327   0.91252   0.85050   0.110521  
         C         C         0.73636   0.96847   0.09971   -0.128294           
         H         H         0.71394   0.91738   0.16837   0.109440  
         C         C         0.62235   0.77257   0.08109   -0.100808           
         H         H         0.67718   0.76230   0.15790   0.110556  
         C         C         0.61335   0.82423   0.90999   -0.127044           
         H         H         0.66161   0.85098   0.83528   0.107832  
         C         C         0.76457   0.98628   0.02321   0.049383  
         H         H         0.81011   0.97929   0.87227   0.116800  
         H         H         0.71708   0.98441   0.16693   0.106288  
         C         C         0.59859   0.79570   -0.00298  0.046806  
         H         H         0.61090   0.75078   0.15014   0.118106  
         H         H         0.59537   0.84172   0.84085   0.105640  
         C         C         0.54261   0.30621   0.14955   0.070022  
         H         H         0.54939   0.33306   0.19859   0.070270  
         C         C         0.02908   0.80197   0.01128   0.070595  
         H         H         0.04567   0.78051   0.95738   0.060928  
         N         N         0.04420   0.83033   0.07276   -0.284273           
         N         N         0.56708   0.28304   0.10862   -0.281631           
         C         C         0.78270   0.37039   0.94533   0.192292  
         C         C         0.74900   0.39130   0.94183   -0.187156           
         N         N         0.77582   0.33419   0.97304   -0.409016           
         C         C         0.72228   0.36801   0.98226   -0.194090           
         H         H         0.74613   0.41982   0.91355   0.118975  
         C         C         0.73896   0.33204   0.99457   0.196653  
         H         H         0.69415   0.37491   0.00001   0.119265  
         C         C         0.71903   0.29951   0.01583   -0.070559           
         C         C         0.73389   0.26400   0.00110   0.182516  
         C         C         0.71385   0.23065   -0.00395  -0.189038           
         N         N         0.77000   0.25415   0.99162   -0.249598           
         C         C         0.73800   0.20213   0.99486   -0.195005           
         H         H         0.68466   0.22864   0.99256   0.132320  
         C         C         0.77385   0.21669   0.98873   0.182991  
         H         H         0.73145   0.17355   -0.00312  0.127164  
         C         C         0.90262   0.21626   0.98641   -0.194501           
         C         C         0.87514   0.19209   0.96726   -0.186150           
         C         C         0.84150   0.21306   0.97489   0.193664  
         N         N         0.84867   0.24968   0.98522   -0.405704           
         H         H         0.93128   0.21004   0.99326   0.120902  
         H         H         0.87751   0.16301   0.95017   0.122645  
         C         C         0.90582   0.28504   0.00288   -0.070552           
         C         C         0.89079   0.32035   0.98686   0.181077  
         C         C         0.91062   0.35374   0.98196   -0.191373           
         N         N         0.85461   0.32976   0.96813   -0.253318           
         C         C         0.88629   0.38193   0.96552   -0.194920           
         H         H         0.93979   0.35589   0.98997   0.130642  
         C         C         0.85052   0.36703   0.95394   0.181664  
         H         H         0.89261   0.41056   0.96202   0.131068  
         C         C         0.81747   0.38651   0.93596   -0.073200           
         C         C         0.80673   0.19693   0.98074   -0.071155           
         C         C         0.88586   0.25228   0.99293   0.193971  
         H         H         0.79138   0.27172   0.99326   0.270435  
         H         H         0.83349   0.31188   0.96774   0.272609  
         C         C         0.67973   0.30023   0.05341   0.060349  
         C         C         0.66634   0.27488   0.16244   -0.115041           
         C         C         0.65375   0.32266   0.97828   -0.115638           
         C         C         0.62952   0.26916   0.18117   -0.175002           
         H         H         0.68560   0.25901   0.23206   0.098916  
         C         C         0.61678   0.31941   0.00730   -0.196743           
         H         H         0.66208   0.34114   0.88714   0.109612  
         C         C         0.60390   0.29148   0.10330   0.206603  
         H         H         0.62005   0.24850   0.26130   0.124147  
         H         H         0.59739   0.33631   0.94276   0.107869  
         C         C         0.94577   0.28382   0.03114   0.062964  
         C         C         0.96949   0.26242   0.94173   -0.115034           
         C         C         0.96142   0.30625   0.14797   -0.119161           
         C         C         0.00698   0.26421   0.96451   -0.185870           
         H         H         0.95871   0.24567   0.84703   0.111615  
         C         C         0.99874   0.30867   0.16975   -0.177096           
         H         H         0.94359   0.32187   0.22306   0.098798  
         C         C         0.02215   0.28812   0.07572   0.199849  
         H         H         0.02487   0.24804   0.89163   0.119521  
         H         H         0.00999   0.32653   0.25952   0.107021  
         C         C         0.82085   0.42661   0.91671   0.060010  
         C         C         0.84691   0.44138   0.81595   -0.113403           
         C         C         0.80034   0.45164   0.00434   -0.113222           
         C         C         0.85407   0.47845   0.81154   -0.174162           
         H         H         0.86161   0.42314   0.73886   0.102932  
         C         C         0.80506   0.48909   0.99018   -0.196498           
         H         H         0.78173   0.44158   0.09104   0.109565  
         C         C         0.83271   0.50308   0.89686   0.199843  
         H         H         0.87487   0.48895   0.73543   0.124247  
         H         H         0.78945   0.50778   0.06190   0.107645  
         C         C         0.80408   0.15665   0.98646   0.059915  
         C         C         0.82680   0.13608   0.08788   -0.114072           
         C         C         0.77880   0.13746   0.89305   -0.115495           
         C         C         0.82558   0.09831   0.09068   -0.169656           
         H         H         0.84526   0.15034   0.16699   0.109349  
         C         C         0.77541   0.09987   0.90417   -0.196088           
         H         H         0.76246   0.15212   0.80668   0.105774  
         C         C         0.79920   0.07974   0.00118   0.203209  
         H         H         0.84348   0.08283   0.16831   0.125755  
         H         H         0.75616   0.08542   0.82916   0.105295  
         C         C         0.07776   0.30055   0.97101   0.077220  
         H         H         0.06368   0.30579   0.85848   0.065575  
         C         C         0.76820   0.02571   0.03384   0.063712  
         H         H         0.74425   0.04115   0.07225   0.065459  
         C         C         0.32266   0.06966   0.90054   0.067894  
         H         H         0.29503   0.06275   0.85986   0.064486  
         N         N         0.79826   0.04169   0.00313   -0.271847           
         N         N         0.34628   0.04473   0.93381   -0.273683           
         N         N         0.05997   0.29219   0.09438   -0.277890           
         N         N         0.84090   0.54027   0.89773   -0.269802           
         C         C         0.81643   0.56379   0.85755   0.070431  
         H         H         0.79008   0.55536   0.80720   0.065341  
         C         C         0.27009   0.87990   0.48349   0.193232  
         C         C         0.23910   0.90466   0.46770   -0.186758           
         N         N         0.25849   0.84500   0.50967   -0.406700           
         C         C         0.20901   0.88483   0.49761   -0.190195           
         H         H         0.24009   0.93315   0.43725   0.119383  
         C         C         0.22129   0.84741   0.51882   0.192974  
         H         H         0.18130   0.89458   0.50147   0.121003  
         C         C         0.19767   0.81758   0.53916   -0.066846           
         C         C         0.20912   0.78077   0.53162   0.178400  
         C         C         0.18639   0.74925   0.53098   -0.187836           
         N         N         0.24435   0.76802   0.52150   -0.251239           
         C         C         0.20817   0.71888   0.52765   -0.194389           
         H         H         0.15712   0.74989   0.53319   0.129875  
         C         C         0.24514   0.73039   0.51894   0.183756  
         H         H         0.19936   0.69091   0.53097   0.129456  
         C         C         0.37359   0.71436   0.52170   -0.193195           
         C         C         0.34320   0.69399   0.50360   -0.192391           
         C         C         0.31248   0.71923   0.50735   0.192794  
         N         N         0.32442   0.75456   0.51556   -0.404693           
         H         H         0.40114   0.70438   0.53245   0.120355  
         H         H         0.34193   0.66477   0.49035   0.118772  
         C         C         0.38587   0.78217   0.52630   -0.071246           
         C         C         0.37433   0.81892   0.51609   0.180672  
         C         C         0.39671   0.85058   0.51415   -0.195341           
         N         N         0.33884   0.83132   0.50559   -0.252636           
         C         C         0.37456   0.88073   0.50879   -0.189544           
         H         H         0.42599   0.85030   0.51715   0.126752  
         C         C         0.33760   0.86892   0.49854   0.183575  
         H         H         0.38309   0.90877   0.51182   0.129141  
         C         C         0.30665   0.89172   0.48195   -0.069213           
         C         C         0.27592   0.70747   0.51089   -0.073816           
         C         C         0.36174   0.75227   0.52280   0.192523  
         H         H         0.26645   0.78467   0.52084   0.270431  
         H         H         0.31703   0.81426   0.50386   0.270967  
         C         C         0.15822   0.82256   0.56878   0.056819  
         C         C         0.14248   0.80139   0.68700   -0.114278           
         C         C         0.13449   0.84461   0.47905   -0.114244           
         C         C         0.10522   0.79969   0.70571   -0.179209           
         H         H         0.16021   0.78573   0.76453   0.097845  
         C         C         0.09694   0.84344   0.49832   -0.187789           
         H         H         0.14498   0.86083   0.38414   0.108797  
         C         C         0.08174   0.81970   0.60718   0.200792  
         H         H         0.09400   0.78258   0.79602   0.106499  
         H         H         0.07909   0.85946   0.42242   0.124079  
         C         C         0.42572   0.77551   0.53869   0.061454  
         C         C         0.44357   0.74894   0.44762   -0.112966           
         C         C         0.44762   0.79637   0.64121   -0.118125           
         C         C         0.48086   0.74306   0.46005   -0.173189           
         H         H         0.42811   0.73376   0.36025   0.109005  
         C         C         0.48525   0.79285   0.64413   -0.197390           
         H         H         0.43481   0.81516   0.72215   0.107036  
         C         C         0.50245   0.76607   0.55365   0.203988  
         H         H         0.49400   0.72272   0.38742   0.124713  
         H         H         0.50158   0.80950   0.72331   0.104506  
         C         C         0.31402   0.93135   0.46731   0.056904  
         C         C         0.34107   0.94431   0.36703   -0.115316           
         C         C         0.29557   0.95750   0.55741   -0.112533           
         C         C         0.35078   0.98078   0.36382   -0.177956           
         H         H         0.35426   0.92526   0.28836   0.101148  
         C         C         0.30316   0.99450   0.54592   -0.194420           
         H         H         0.27592   0.94851   0.64212   0.111296  
         C         C         0.33145   0.00664   0.45144   0.201830  
         H         H         0.37191   0.99000   0.28638   0.126484  
         H         H         0.28905   0.01403   0.61932   0.107688  
         C         C         0.26911   0.66760   0.51315   0.060265  
         C         C         0.28879   0.64484   0.61657   -0.112595           
         C         C         0.24301   0.65094   0.41412   -0.118220           
         C         C         0.28475   0.60724   0.61279   -0.195468           
         H         H         0.30712   0.65702   0.70253   0.110438  
         C         C         0.23674   0.61368   0.41809   -0.173567           
         H         H         0.22831   0.66747   0.32862   0.104176  
         C         C         0.25870   0.59110   0.51312   0.200931  
         H         H         0.30013   0.59015   0.69405   0.105080  
         H         H         0.21680   0.60137   0.33938   0.125936  
         C         C         0.55828   0.79031   0.50963   0.067415  
         H         H         0.54377   0.81448   0.46424   0.060610  
         C         C         0.28156   0.53288   0.48590   0.067188  
         H         H         0.30767   0.54462   0.45205   0.062955  
         C         C         0.28012   0.49327   0.49644   0.047750  
         C         C         0.30633   0.47179   0.42163   -0.127413           
         C         C         0.25259   0.47583   0.57931   -0.103162           
         C         C         0.30439   0.43395   0.42383   -0.137704           
         H         H         0.32740   0.48498   0.35492   0.105194  
         C         C         0.25151   0.43815   0.58605   -0.133106           
         H         H         0.23282   0.49248   0.64041   0.118704  
         C         C         0.27695   0.41624   0.50651   0.073982  
         H         H         0.32327   0.41800   0.35496   0.109768  
         H         H         0.23106   0.42510   0.65646   0.109178  
         C         C         0.27226   0.37631   0.50356   0.020948  
         C         C         0.23672   0.36356   0.48999   -0.185341           
         C         C         0.30114   0.35044   0.51337   0.035075  
         C         C         0.22767   0.32673   0.48121   0.020333  
         H         H         0.21484   0.38351   0.48660   0.103912  
         C         C         0.29319   0.31235   0.49844   0.004424  
         C         C         0.33798   0.36086   0.53933   -0.135170           
         C         C         0.25629   0.30052   0.48008   0.035352  
         C         C         0.18863   0.31777   0.47486   0.071046  
         C         C         0.32225   0.28605   0.50244   0.002176  
         C         C         0.36557   0.33584   0.54470   -0.131223           
         H         H         0.34418   0.38946   0.55593   0.105143  
         C         C         0.24980   0.26254   0.46193   -0.137373           
         C         C         0.16439   0.34088   0.39244   -0.131578           
         C         C         0.17378   0.28833   0.55754   -0.134342           
         C         C         0.31449   0.24805   0.48117   0.032084  
         C         C         0.35894   0.29777   0.52883   0.033279  
         H         H         0.39330   0.34504   0.56108   0.107475  
         C         C         0.27740   0.23759   0.46584   -0.131954           
         H         H         0.22219   0.25317   0.44448   0.107641  
         C         C         0.12717   0.33531   0.39495   -0.122675           
         H         H         0.17512   0.36289   0.32270   0.110687  
         C         C         0.13666   0.28198   0.55608   -0.104232           
         H         H         0.19150   0.27151   0.63052   0.110335  
         C         C         0.34362   0.22231   0.47758   0.023864  
         C         C         0.38731   0.27130   0.53652   0.027676  
         H         H         0.27081   0.20895   0.45748   0.106498  
         C         C         0.11276   0.30570   0.47615   0.049116  
         H         H         0.10888   0.35332   0.32976   0.112143  
         H         H         0.12534   0.25966   0.62237   0.114871  
         C         C         0.37884   0.23484   0.50732   -0.182890           
         C         C         0.33848   0.18289   0.44924   0.070321  
         C         C         0.42571   0.28025   0.57140   0.069467  
         H         H         0.40099   0.21518   0.50854   0.108882  
         C         C         0.31226   0.16919   0.34279   -0.135550           
         C         C         0.36036   0.15726   0.53112   -0.129492           
         C         C         0.43634   0.30439   0.69192   -0.139195           
         C         C         0.45323   0.26295   0.48548   -0.135555           
         C         C         0.30612   0.13197   0.32921   -0.127726           
         H         H         0.29703   0.18787   0.26800   0.108230  
         C         C         0.35543   0.12007   0.51217   -0.107286           
         H         H         0.38025   0.16686   0.61702   0.111349  
         C         C         0.47289   0.31141   0.72339   -0.125095           
         H         H         0.41583   0.31659   0.76574   0.104036  
         C         C         0.48957   0.27057   0.51394   -0.114558           
         H         H         0.44580   0.24439   0.39115   0.108450  
         C         C         0.32740   0.10682   0.41434   0.046783  
         H         H         0.28524   0.12206   0.24844   0.104662  
         H         H         0.37179   0.10063   0.57893   0.117706  
         C         C         0.49999   0.29516   0.63251   0.048571  
         H         H         0.48043   0.32946   0.81966   0.105009  
         H         H         0.51054   0.25802   0.44359   0.117946  
         N         N         0.25368   0.55332   0.51149   -0.272252           
         N         N         0.54050   0.76226   0.55479   -0.274867           
         C         C         0.82097   0.59910   0.37263   0.047580  
         C         C         0.79652   0.62350   0.30012   -0.128617           
         C         C         0.84957   0.61319   0.46507   -0.105929           
         C         C         0.80049   0.66092   0.31911   -0.136376           
         H         H         0.77486   0.61296   0.22482   0.106623  
         C         C         0.85252   0.65042   0.48921   -0.131379           
         H         H         0.86812   0.59415   0.52268   0.117321  
         C         C         0.82787   0.67521   0.41824   0.071805  
         H         H         0.78271   0.67941   0.25441   0.109102  
         H         H         0.87328   0.66063   0.56972   0.111335  
         C         C         0.83188   0.71471   0.44641   0.022463  
         C         C         0.86700   0.72878   0.45607   -0.183284           
         C         C         0.80198   0.73906   0.46510   0.033892  
         C         C         0.87462   0.76574   0.47625   0.025089  
         H         H         0.88969   0.70990   0.44698   0.105777  
         C         C         0.80857   0.77738   0.48126   0.002290  
         C         C         0.76537   0.72683   0.47181   -0.135492           
         C         C         0.84509   0.79081   0.48404   0.033355  
         C         C         0.91323   0.77643   0.48474   0.070258  
         C         C         0.77859   0.80238   0.49387   0.002946  
         C         C         0.73683   0.75055   0.48338   -0.133372           
         H         H         0.76013   0.69782   0.46798   0.106520  
         C         C         0.85040   0.82917   0.49355   -0.131735           
         C         C         0.93830   0.75831   0.38873   -0.137121           
         C         C         0.92673   0.80318   0.58903   -0.135262           
         C         C         0.78526   0.84081   0.50410   0.036386  
         C         C         0.74209   0.78888   0.49491   0.034252  
         H         H         0.70942   0.73998   0.48408   0.107586  
         C         C         0.82196   0.85287   0.50764   -0.130836           
         H         H         0.87775   0.83981   0.48939   0.109393  
         C         C         0.97492   0.76697   0.39435   -0.123334           
         H         H         0.92857   0.73829   0.30430   0.111510  
         C         C         0.96342   0.81177   0.59547   -0.104897           
         H         H         0.90848   0.81631   0.67052   0.109470  
         C         C         0.75537   0.86546   0.50984   0.023135  
         C         C         0.71268   0.81396   0.50604   0.020959  
         H         H         0.82742   0.88167   0.52147   0.109215  
         C         C         0.98808   0.79387   0.49754   0.047563  
         H         H         0.99351   0.75311   0.31625   0.105780  
         H         H         0.97364   0.83198   0.67814   0.117954  
         C         C         0.72039   0.85113   0.51231   -0.185144           
         C         C         0.75870   0.90553   0.51294   0.073338  
         C         C         0.67377   0.80422   0.50425   0.074315  
         H         H         0.69773   0.87008   0.51786   0.101740  
         C         C         0.78385   0.92454   0.42147   -0.133373           
         C         C         0.73464   0.92623   0.60425   -0.137428           
         C         C         0.65873   0.77597   0.59339   -0.136482           
         C         C         0.64979   0.82624   0.41521   -0.134155           
         C         C         0.78570   0.96224   0.42581   -0.102288           
         H         H         0.80110   0.90957   0.34162   0.109887  
         C         C         0.73586   0.96405   0.60597   -0.126369           
         H         H         0.71551   0.91226   0.67817   0.108203  
         C         C         0.62142   0.77011   0.59385   -0.103069           
         H         H         0.67635   0.75971   0.66930   0.109024  
         C         C         0.61257   0.82127   0.41994   -0.127769           
         H         H         0.66080   0.84706   0.33988   0.109121  
         C         C         0.76180   0.98261   0.51868   0.044914  
         H         H         0.80488   0.97677   0.35407   0.117219  
         H         H         0.71727   0.97935   0.67919   0.105947  
         C         C         0.59774   0.79311   0.50868   0.049462  
         H         H         0.60997   0.74879   0.66546   0.118045  
         H         H         0.59451   0.83872   0.35102   0.105536  
         C         C         0.53866   0.30312   0.65673   0.073076  
         H         H         0.54861   0.30760   0.77754   0.071537  
         C         C         0.02698   0.80144   0.50078   0.077714  
         H         H         0.04163   0.79346   0.39477   0.064684  
         N         N         0.04395   0.81494   0.62057   -0.276269           
         N         N         0.55961   0.30419   0.53751   -0.279889           
         C         C         0.78134   0.36875   0.44943   0.195185  
         C         C         0.74850   0.39106   0.44648   -0.191257           
         N         N         0.77304   0.33288   0.47754   -0.407764           
         C         C         0.72091   0.36891   0.48704   -0.190726           
         H         H         0.74660   0.41966   0.41852   0.120282  
         C         C         0.73610   0.33227   0.49860   0.196683  
         H         H         0.69311   0.37682   0.50679   0.120407  
         C         C         0.71450   0.30085   0.51909   -0.075515           
         C         C         0.72789   0.26464   0.51363   0.183280  
         C         C         0.70715   0.23176   0.51611   -0.191982           
         N         N         0.76372   0.25395   0.49913   -0.252386           
         C         C         0.73069   0.20270   0.50814   -0.194372           
         H         H         0.67793   0.23050   0.52157   0.129822  
         C         C         0.76675   0.21641   0.49471   0.181297  
         H         H         0.72370   0.17421   0.51089   0.128040  
         C         C         0.89557   0.21109   0.49749   -0.188859           
         C         C         0.86723   0.18808   0.47672   -0.191872           
         C         C         0.83440   0.21049   0.47816   0.193573  
         N         N         0.84312   0.24682   0.48593   -0.404787           
         H         H         0.92379   0.20363   0.51235   0.121341  
         H         H         0.86869   0.15886   0.46452   0.121492  
         C         C         0.90214   0.27950   0.49617   -0.069401           
         C         C         0.88840   0.31534   0.47939   0.181986  
         C         C         0.90905   0.34814   0.46908   -0.194560           
         N         N         0.85236   0.32581   0.46806   -0.252520           
         C         C         0.88540   0.37703   0.45798   -0.190644           
         H         H         0.93828   0.34959   0.47073   0.129768  
         C         C         0.84916   0.36314   0.45316   0.183651  
         H         H         0.89253   0.40546   0.45406   0.131466  
         C         C         0.81664   0.38355   0.43746   -0.069980           
         C         C         0.79901   0.19566   0.48188   -0.072326           
         C         C         0.88041   0.24781   0.49563   0.195787  
         H         H         0.78503   0.27151   0.49297   0.270843  
         H         H         0.83096   0.30831   0.47225   0.271664  
         C         C         0.67461   0.30509   0.53787   0.066515  
         C         C         0.65585   0.28448   0.64887   -0.118768           
         C         C         0.65342   0.32778   0.43872   -0.113878           
         C         C         0.61808   0.28462   0.65480   -0.185951           
         H         H         0.67132   0.26800   0.73207   0.103673  
         C         C         0.61588   0.32894   0.44718   -0.175237           
         H         H         0.66642   0.34264   0.34582   0.106805  
         C         C         0.59740   0.30663   0.55228   0.196849  
         H         H         0.60435   0.26730   0.73776   0.119738  
         H         H         0.60020   0.34554   0.36532   0.108794  
         C         C         0.94229   0.27598   0.51131   0.059558  
         C         C         0.96265   0.25046   0.42471   -0.112428           
         C         C         0.96187   0.29949   0.61148   -0.116221           
         C         C         0.00022   0.24811   0.43991   -0.171021           
         H         H         0.94893   0.23342   0.33842   0.110546  
         C         C         -0.00036  0.29967   0.61568   -0.199697           
         H         H         0.94710   0.31780   0.68804   0.106109  
         C         C         0.01936   0.27383   0.53023   0.205131  
         H         H         0.01544   0.22849   0.37138   0.123146  
         H         H         0.01410   0.31877   0.69116   0.108416  
         C         C         0.82100   0.42346   0.41644   0.060717  
         C         C         0.84676   0.43750   0.31240   -0.117049           
         C         C         0.80142   0.44896   0.50550   -0.116453           
         C         C         0.85417   0.47448   0.30445   -0.172067           
         H         H         0.86096   0.41881   0.23553   0.099882  
         C         C         0.80650   0.48624   0.48877   -0.191366           
         H         H         0.78325   0.43932   0.59471   0.110002  
         C         C         0.83350   0.49960   0.39042   0.200588  
         H         H         0.87455   0.48458   0.22536   0.126031  
         H         H         0.79176   0.50523   0.56242   0.105281  
         C         C         0.79534   0.15533   0.47924   0.056247  
         C         C         0.81747   0.13313   0.57628   -0.109032           
         C         C         0.77007   0.13752   0.38062   -0.116946           
         C         C         0.81636   0.09539   0.56792   -0.177951           
         H         H         0.83544   0.14582   0.66219   0.109297  
         C         C         0.76659   0.09974   0.38109   -0.199911           
         H         H         0.75348   0.15345   0.29942   0.105423  
         C         C         0.79026   0.07816   0.47250   0.201495  
         H         H         0.83423   0.07888   0.64169   0.125435  
         H         H         0.74689   0.08658   0.30399   0.107856  
         C         C         0.07350   0.30133   0.47714   0.070032  
         H         H         0.05785   0.32388   0.42464   0.062737  
         C         C         0.76370   0.02231   0.52575   0.069180  
         H         H         0.74187   0.03631   0.58899   0.068056  
         C         C         0.31940   0.06794   0.40380   0.066350  
         H         H         0.29263   0.06085   0.35374   0.067596  
         N         N         0.78989   0.04000   0.46489   -0.264176           
         N         N         0.34203   0.04325   0.45028   -0.268448           
         N         N         0.05753   0.27325   0.53329   -0.286538           
         N         N         0.84155   0.53676   0.38569   -0.272948           
         C         C         0.81585   0.55986   0.35648   0.065456  
         H         H         0.78858   0.55091   0.31920   0.065745 

