
##########################################################################
#               Crystallographic Information Format file
#               Produced by PyCifRW module
#
#  This is a CIF file.  CIF has been adopted by the International
#  Union of Crystallography as the standard for data archiving and
#  transmission.
#
#  For information on this file format, follow the CIF links at
#  http://www.iucr.org
##########################################################################

data_image0

_cell_length_a                          51.3006
_cell_length_b                          51.4572
_cell_length_c                          8.02494
_cell_angle_alpha                       108.72
_cell_angle_beta                        54.1031
_cell_angle_gamma                       119.506
_symmetry_space_group_name_H-M          'P 1'
_space_group_name_Hall                  'P 1'
loop_
  _atom_site_type_symbol
  _atom_site_label
  _atom_site_fract_x
  _atom_site_fract_y
  _atom_site_fract_z
  _atom_site_charge
         H         H         0.26830   0.68878   0.07214   0.061955  
         H         H         0.31927   0.68616   0.86669   0.103371  
         H         H         0.36919   0.68083   0.81501   0.116291  
         H         H         0.39337   0.76524   0.14068   0.112840  
         H         H         0.34399   0.77097   0.18762   0.114939  
         H         H         0.44594   0.76294   0.91343   0.067754  
         H         H         0.43745   0.68843   0.95812   0.102469  
         H         H         0.53370   0.72545   0.95510   0.107658  
         H         H         0.50127   0.78261   0.89322   0.113655  
         H         H         0.56902   0.77609   0.92246   0.067084  
         H         H         0.42075   0.65732   0.15569   0.103623  
         H         H         0.40808   0.60962   0.25202   0.099697  
         H         H         0.45624   0.59903   0.17860   0.103757  
         H         H         0.53090   0.68209   0.87848   0.108521  
         H         H         0.50362   0.58673   0.94458   0.101981  
         H         H         0.59914   0.62217   0.94284   0.114157  
         H         H         0.55621   0.68187   0.02060   0.111618  
         H         H         0.63217   0.67656   0.95078   0.069675  
         H         H         0.52846   0.55322   0.88695   0.063347  
         H         H         0.50778   0.51357   0.02351   0.107879  
         H         H         0.50214   0.46331   0.03730   0.116812  
         H         H         0.60576   0.50197   0.93814   0.115395  
         H         H         0.61174   0.55196   0.91911   0.120791  
         H         H         0.58812   0.46159   0.04373   0.067630  
         H         H         0.98595   0.61202   0.99013   0.067471  
         H         H         0.05141   0.60378   0.02377   0.110492  
         H         H         0.11156   0.69928   0.01990   0.104950  
         H         H         0.01708   0.66440   0.01638   0.110498  
         H         H         0.09443   0.73281   0.01834   0.066041  
         H         H         0.09177   0.59801   0.96748   0.108613  
         H         H         0.13803   0.59204   0.95047   0.100531  
         H         H         0.18528   0.63546   0.98705   0.102259  
         H         H         0.13998   0.69285   0.06413   0.100964  
         H         H         0.21736   0.66968   0.06182   0.099941  
         H         H         0.27240   0.76465   0.08036   0.113298  
         H         H         0.17947   0.72786   0.05365   0.105193  
         H         H         0.10607   0.77530   0.98247   0.110367  
         H         H         0.11107   0.82449   0.95739   0.113306  
         H         H         0.01601   0.78163   0.94368   0.111215  
         H         H         0.01189   0.73237   0.95970   0.120072  
         H         H         0.02929   0.82217   0.88478   0.066703  
         H         H         0.09654   0.89186   0.95471   0.107382  
         H         H         0.05352   0.94864   0.98538   0.097098  
         H         H         0.00420   0.85367   0.92099   0.114607  
         H         H         0.13423   0.92654   0.95764   0.103436  
         H         H         0.17951   0.02077   0.08089   0.110836  
         H         H         0.13381   0.02684   0.09215   0.100977  
         H         H         0.08747   0.98351   0.04606   0.102085  
         H         H         0.16136   0.91994   0.01953   0.102637  
         H         H         0.25795   0.95590   0.00166   0.112006  
         H         H         0.22089   0.01553   0.01199   0.107032  
         H         H         0.17945   0.88696   0.02421   0.066372  
         H         H         0.29256   0.00862   0.98408   0.065918  
         H         H         0.17582   0.84469   0.98338   0.106720  
         H         H         0.17172   0.79562   0.00088   0.112056  
         H         H         0.25871   0.83926   0.09533   0.108998  
         H         H         0.26394   0.88832   0.06690   0.118702  
         H         H         0.25374   0.79703   0.06695   0.067708  
         H         H         0.32447   0.04172   0.08929   0.113407  
         H         H         0.37399   0.08767   0.09175   0.115796  
         H         H         0.33509   0.14118   0.04906   0.106087  
         H         H         0.28639   0.09521   0.03931   0.113898  
         H         H         0.38154   0.17352   -0.00070  0.063365  
         H         H         0.44688   0.16849   0.05892   0.115535  
         H         H         0.50541   0.26334   0.03996   0.109860  
         H         H         0.41095   0.22449   0.01863   0.098268  
         H         H         0.49993   0.18983   0.06793   0.067757  
         H         H         0.51181   0.30083   0.00558   0.106696  
         H         H         0.47246   0.35946   0.02630   0.110372  
         H         H         0.42120   0.31571   0.03518   0.103378  
         H         H         0.41338   0.26479   0.04085   0.106302  
         H         H         0.54810   0.33305   0.03464   0.104710  
         H         H         0.60662   0.42741   0.04370   0.113301  
         H         H         0.51437   0.39377   0.01450   0.106385  
         H         H         0.59861   0.35072   0.05098   0.065472  
         H         H         0.54784   0.18466   0.90707   0.112007  
         H         H         0.59638   0.18155   0.88801   0.116113  
         H         H         0.62793   0.27343   0.10379   0.109026  
         H         H         0.57997   0.27678   0.11786   0.112412  
         H         H         0.64793   0.34548   0.89123   0.107360  
         H         H         0.69754   0.34267   0.86178   0.112853  
         H         H         0.72504   0.43261   0.11632   0.113953  
         H         H         0.67653   0.43590   0.13648   0.114974  
         H         H         0.77472   0.42965   0.93957   0.067388  
         H         H         0.67570   0.26753   0.96196   0.062412  
         H         H         0.66831   0.19092   0.97014   0.108607  
         H         H         0.76212   0.22601   0.98547   0.108479  
         H         H         0.72672   0.28542   0.96647   0.104016  
         H         H         0.77137   0.35626   0.94694   0.104979  
         H         H         0.86509   0.39492   0.97551   0.099710  
         H         H         0.82809   0.45124   0.94873   0.117895  
         H         H         0.80048   0.26047   0.00432   0.111486  
         H         H         0.85032   0.30450   0.01072   0.108835  
         H         H         0.85910   0.35514   0.99173   0.105717  
         H         H         0.76669   0.31816   0.95717   0.099641  
         H         H         0.89504   0.44533   0.99074   0.060585  
         H         H         0.61370   0.81121   0.89939   0.109967  
         H         H         0.66165   0.85841   0.90706   0.110012  
         H         H         0.61434   0.90934   0.92152   0.109781  
         H         H         0.56625   0.86212   0.91429   0.118274  
         H         H         0.65772   0.70928   0.11288   0.111687  
         H         H         0.70461   0.75675   0.13560   0.116255  
         H         H         0.66493   0.80716   0.06880   0.109642  
         H         H         0.61814   0.75996   0.04888   0.110291  
         H         H         0.64590   0.94263   0.03000   0.062392  
         H         H         0.70979   0.84129   0.03863   0.065921  
         H         H         0.72114   0.93724   0.96928   0.111944  
         H         H         0.76995   0.03188   0.08214   0.106362  
         H         H         0.67746   0.99663   0.05197   0.111356  
         H         H         0.77392   0.83513   0.09826   0.111325  
         H         H         0.83823   0.92930   0.04288   0.112156  
         H         H         0.74226   0.89339   0.04258   0.108886  
         H         H         0.85409   0.96370   0.88280   0.111237  
         H         H         0.86607   0.01224   0.80273   0.101287  
         H         H         0.81839   0.02211   0.86388   0.103423  
         H         H         0.74486   0.93534   0.11247   0.103793  
         H         H         0.82881   0.85314   0.06840   0.064578  
         H         H         0.85864   0.84752   0.14107   0.109287  
         H         H         0.90867   0.84316   0.09564   0.114985  
         H         H         0.97477   0.93299   0.89163   0.103427  
         H         H         0.92476   0.93733   0.93722   0.113177  
         H         H         0.00071   0.92860   -0.00191  0.056223  
         H         H         0.94096   0.47894   0.94323   0.106693  
         H         H         0.98885   0.52492   0.96289   0.117983  
         H         H         0.93645   0.57832   0.07252   0.109527  
         H         H         0.88855   0.53229   0.05163   0.117689  
         H         H         0.68928   0.15727   0.95972   0.065127  
         H         H         0.66828   0.11833   0.10152   0.110316  
         H         H         0.66309   0.06798   0.10753   0.119300  
         H         H         0.76623   0.10662   0.01581   0.110351  
         H         H         0.77182   0.15682   0.00374   0.121268  
         H         H         0.74804   0.06538   0.11918   0.065516  
         C         C         0.27353   0.71214   0.06942   0.073364  
         C         C         0.32774   0.72886   0.03508   0.193231  
         C         C         0.33485   0.70314   0.93156   -0.172001           
         C         C         0.36291   0.70017   0.90037   -0.147801           
         C         C         0.38509   0.72276   0.96992   0.195119  
         C         C         0.37776   0.74835   0.07559   -0.167702           
         C         C         0.34982   0.75137   0.10536   -0.144434           
         C         C         0.44020   0.73974   0.92478   0.084299  
         C         C         0.46650   0.73553   0.92368   0.060411  
         C         C         0.46103   0.70703   0.94805   -0.127489           
         C         C         0.48470   0.70271   0.96040   0.070386  
         C         C         0.51510   0.72776   0.94082   -0.160975           
         C         C         0.52112   0.75640   0.91669   0.052682  
         C         C         0.49648   0.76021   0.90957   -0.150417           
         C         C         0.55175   0.78176   0.91403   0.073194  
         C         C         0.47694   0.67341   0.00904   0.074490  
         C         C         0.44225   0.65227   0.11290   -0.130679           
         C         C         0.43511   0.62544   0.16850   -0.092791           
         C         C         0.46216   0.61927   0.12503   -0.144942           
         C         C         0.49707   0.64000   0.02262   0.071287  
         C         C         0.50380   0.66657   0.96392   -0.168795           
         C         C         0.52596   0.63490   0.98713   0.071255  
         C         C         0.52506   0.60599   0.95624   -0.161313           
         C         C         0.55114   0.60140   0.94161   0.059395  
         C         C         0.57934   0.62611   0.95179   -0.147467           
         C         C         0.58113   0.65497   0.97710   0.051636  
         C         C         0.55437   0.65911   0.99561   -0.130764           
         C         C         0.60981   0.68064   0.99335   0.074613  
         C         C         0.54789   0.57103   0.92542   0.085582  
         C         C         0.56078   0.53634   0.96536   0.195571  
         C         C         0.52954   0.51106   0.00071   -0.176438           
         C         C         0.52605   0.48298   0.01074   -0.140067           
         C         C         0.55304   0.47893   0.99044   0.195559  
         C         C         0.58424   0.50426   0.95608   -0.172725           
         C         C         0.58787   0.53231   0.94444   -0.145839           
         C         C         0.56605   0.44403   0.02735   0.081134  
         C         C         0.56035   0.41347   0.03148   0.060596  
         C         C         0.02622   0.90157   0.95459   0.071637  
         C         C         0.00174   0.60607   0.01067   0.080114  
         C         C         0.03123   0.63133   0.02200   0.054498  
         C         C         0.05602   0.62678   0.02383   -0.152878           
         C         C         0.08543   0.65083   0.02303   0.072057  
         C         C         0.08901   0.67982   0.02332   -0.152096           
         C         C         0.06459   0.68482   0.02290   0.066131  
         C         C         0.03546   0.66034   0.02202   -0.157233           
         C         C         0.07130   0.71542   0.01200   0.078230  
         C         C         0.11269   0.64629   0.01396   0.071586  
         C         C         0.11232   0.61765   0.98415   -0.120972           
         C         C         0.13855   0.61428   0.97409   -0.090560           
         C         C         0.16540   0.63898   0.99450   -0.139366           
         C         C         0.16639   0.66792   0.02731   0.067798  
         C         C         0.13980   0.67073   0.03574   -0.167435           
         C         C         0.19422   0.69466   0.05338   0.067092  
         C         C         0.21919   0.69172   0.06346   -0.170804           
         C         C         0.24721   0.71667   0.07326   0.066541  
         C         C         0.25024   0.74545   0.07687   -0.134741           
         C         C         0.22518   0.74903   0.07437   0.058671  
         C         C         0.19738   0.72369   0.06296   -0.153726           
         C         C         0.05803   0.75011   0.97409   0.191706  
         C         C         0.08646   0.77638   0.97163   -0.167153           
         C         C         0.08946   0.80407   0.95767   -0.150553           
         C         C         0.06431   0.80682   0.94827   0.196973  
         C         C         0.03605   0.78052   0.94970   -0.170465           
         C         C         0.03333   0.75285   0.96053   -0.134875           
         C         C         0.04920   0.84043   0.91732   0.092831  
         C         C         0.05129   0.87020   0.93079   0.063362  
         C         C         0.07786   0.89573   0.95146   -0.140610           
         C         C         0.07954   0.92450   0.97172   0.062791  
         C         C         0.05336   0.92682   0.97100   -0.164994           
         C         C         0.02551   0.87312   0.93199   -0.138963           
         C         C         0.10707   0.95126   -0.00011  0.069095  
         C         C         0.13375   0.94849   0.99106   -0.167214           
         C         C         0.16020   0.97282   0.01960   0.070943  
         C         C         0.15977   0.00127   0.05608   -0.132476           
         C         C         0.13368   0.00466   0.06471   -0.091927           
         C         C         0.10742   0.98006   0.03832   -0.145584           
         C         C         0.18741   0.96839   0.01187   0.071080  
         C         C         0.18422   0.93952   0.01139   -0.156783           
         C         C         0.20935   0.93497   0.00729   0.060236  
         C         C         0.23875   0.95970   0.00306   -0.147576           
         C         C         0.24213   0.98854   0.00817   0.053297  
         C         C         0.21662   0.99263   0.01171   -0.132311           
         C         C         0.20373   0.90468   0.01582   0.080392  
         C         C         0.27198   0.01407   0.01314   0.078341  
         C         C         0.22035   0.87031   0.02585   0.192860  
         C         C         0.19414   0.84382   0.00720   -0.166435           
         C         C         0.19160   0.81617   0.01737   -0.136752           
         C         C         0.21440   0.81358   0.04962   0.188228  
         C         C         0.24068   0.84010   0.06849   -0.170526           
         C         C         0.24372   0.86777   0.05375   -0.147854           
         C         C         0.22998   0.77924   0.06974   0.081577  
         C         C         0.30255   0.06528   0.05603   0.198208  
         C         C         0.32731   0.06328   0.07311   -0.169087           
         C         C         0.35486   0.08892   0.07726   -0.136773           
         C         C         0.35880   0.11752   0.06533   0.197723  
         C         C         0.33342   0.11952   0.05415   -0.171191           
         C         C         0.30596   0.09391   0.04931   -0.142346           
         C         C         0.39591   0.16841   0.03720   0.070909  
         C         C         0.42566   0.19411   0.04259   0.061583  
         C         C         0.45034   0.19085   0.05233   -0.169347           
         C         C         0.47911   0.21612   0.04924   0.065706  
         C         C         0.48263   0.24467   0.04082   -0.141931           
         C         C         0.45832   0.24864   0.03236   0.065178  
         C         C         0.43002   0.22276   0.03119   -0.173627           
         C         C         0.50579   0.21271   0.04926   0.071734  
         C         C         0.46226   0.27890   0.02477   0.064372  
         C         C         0.49174   0.30419   0.01478   -0.173417           
         C         C         0.49617   0.33352   0.01844   0.068186  
         C         C         0.47017   0.33725   0.02504   -0.130426           
         C         C         0.44102   0.31246   0.03067   -0.080656           
         C         C         0.43675   0.28356   0.03271   -0.139536           
         C         C         0.52663   0.35943   0.02314   0.062753  
         C         C         0.55106   0.35537   0.03212   -0.170158           
         C         C         0.57982   0.37958   0.03830   0.063151  
         C         C         0.58425   0.40878   0.03884   -0.130455           
         C         C         0.53184   0.38882   0.02311   -0.148616           
         C         C         0.60510   0.37417   0.03994   0.075320  
         C         C         0.56015   0.23105   0.01820   0.199793  
         C         C         0.65877   0.39115   0.01753   0.199259  
         C         C         0.56495   0.20401   0.95322   -0.170454           
         C         C         0.59216   0.20218   0.94062   -0.138860           
         C         C         0.61588   0.22708   0.99021   0.198587  
         C         C         0.61097   0.25411   0.05627   -0.162067           
         C         C         0.58386   0.25600   0.06782   -0.142870           
         C         C         0.66453   0.36451   0.94252   -0.170146           
         C         C         0.69235   0.36287   0.92444   -0.146465           
         C         C         0.71547   0.38756   0.97950   0.198379  
         C         C         0.70896   0.41386   0.06056   -0.164770           
         C         C         0.68152   0.41562   0.07614   -0.142348           
         C         C         0.77008   0.40666   0.94675   0.078651  
         C         C         0.79697   0.40350   0.94584   0.065393  
         C         C         0.66956   0.24402   0.96836   0.074846  
         C         C         0.69514   0.23877   0.96786   0.066843  
         C         C         0.69095   0.20978   0.97096   -0.139893           
         C         C         0.71516   0.20564   0.97878   0.065081  
         C         C         0.74409   0.23056   0.97987   -0.141005           
         C         C         0.74919   0.25976   0.97512   0.063704  
         C         C         0.72410   0.26324   0.96953   -0.163444           
         C         C         0.79384   0.37493   0.94986   -0.132177           
         C         C         0.81784   0.37082   0.96019   0.069175  
         C         C         0.84590   0.39667   0.96417   -0.172068           
         C         C         0.84959   0.42545   0.96095   0.056147  
         C         C         0.82498   0.42882   0.95094   -0.151653           
         C         C         0.77946   0.28597   0.98001   0.065271  
         C         C         0.81328   0.34056   0.97266   0.070693  
         C         C         0.80365   0.28252   0.99449   -0.138400           
         C         C         0.83196   0.30747   -0.00179  -0.082504           
         C         C         0.83690   0.33621   0.98697   -0.138933           
         C         C         0.78487   0.31512   0.97034   -0.178098           
         C         C         0.87827   0.45105   0.97788   0.068881  
         C         C         0.58588   0.83351   0.91151   0.197721  
         C         C         0.63534   0.73158   0.07314   0.193232  
         C         C         0.61340   0.83251   0.90567   -0.161006           
         C         C         0.64041   0.85882   0.90954   -0.135780           
         C         C         0.64098   0.88708   0.92139   0.196987  
         C         C         0.61395   0.88802   0.92169   -0.170823           
         C         C         0.58705   0.86175   0.91670   -0.134610           
         C         C         0.65974   0.73063   0.09889   -0.172639           
         C         C         0.68571   0.75699   0.11371   -0.137910           
         C         C         0.68858   0.78509   0.10052   0.198797  
         C         C         0.66368   0.78594   0.07849   -0.166979           
         C         C         0.63734   0.75966   0.06758   -0.153558           
         C         C         0.66779   0.93814   0.99158   0.080653  
         C         C         0.72422   0.83644   0.07728   0.082713  
         C         C         0.75440   0.86196   0.07881   0.057475  
         C         C         0.69593   0.96392   0.01401   0.055869  
         C         C         0.72237   0.95988   0.00009   -0.152825           
         C         C         0.74958   0.98403   0.02124   0.071077  
         C         C         0.74971   0.01276   0.05891   -0.158203           
         C         C         0.72417   0.01741   0.06736   0.063199  
         C         C         0.69699   0.99274   0.04638   -0.156646           
         C         C         0.77871   0.85771   0.08597   -0.172123           
         C         C         0.80881   0.88209   0.07252   0.062910  
         C         C         0.81447   0.91099   0.05313   -0.135941           
         C         C         0.79094   0.91574   0.04177   0.067815  
         C         C         0.76075   0.89078   0.05573   -0.159090           
         C         C         0.77814   0.97924   0.99283   0.071468  
         C         C         0.79843   0.94562   0.00220   0.072244  
         C         C         0.83260   0.96799   0.91759   -0.127040           
         C         C         0.83937   0.99543   0.87211   -0.090097           
         C         C         0.81252   0.00116   0.90848   -0.139227           
         C         C         0.77166   0.95190   0.04009   -0.172396           
         C         C         0.83484   0.87676   0.06624   0.074830  
         C         C         0.88853   0.89305   0.04043   0.198148  
         C         C         0.88403   0.86625   0.08563   -0.169144           
         C         C         0.91181   0.86366   0.06106   -0.143698           
         C         C         0.94489   0.88772   0.99485   0.206652  
         C         C         0.94923   0.91445   0.95069   -0.163895           
         C         C         0.92149   0.91705   0.97534   -0.137332           
         C         C         0.99813   0.90539   0.97431   0.074248  
         C         C         0.91109   0.50247   -0.00374  0.199488  
         C         C         0.93970   0.50054   0.97131   -0.162326           
         C         C         0.96677   0.52615   0.98048   -0.138940           
         C         C         0.96680   0.55477   0.01208   0.200881  
         C         C         0.93788   0.55671   0.04125   -0.167431           
         C         C         0.91081   0.53105   0.03161   -0.138452           
         C         C         0.70975   0.17541   0.98867   0.088342  
         C         C         0.72125   0.14121   0.04475   0.196410  
         C         C         0.69004   0.11588   0.07916   -0.170977           
         C         C         0.68682   0.08766   0.08466   -0.141199           
         C         C         0.71398   0.08350   0.06177   0.194160  
         C         C         0.74471   0.10897   0.03421   -0.167867           
         C         C         0.74810   0.13715   0.02658   -0.144894           
         C         C         0.72763   0.04801   0.08725   0.076095  
         N         N         0.30128   0.73420   0.06142   -0.283170           
         N         N         0.41185   0.71767   0.94154   -0.286747           
         N         N         0.56637   0.56565   0.96047   -0.300952           
         N         N         0.54634   0.44959   0.00445   -0.303057           
         N         N         0.99546   0.57881   0.01961   -0.290713           
         N         N         0.05135   0.72097   0.99127   -0.302399           
         N         N         0.06892   0.83597   0.94685   -0.308116           
         N         N         0.22574   0.89947   0.01845   -0.297564           
         N         N         0.20844   0.78437   0.06175   -0.308027           
         N         N         0.27382   0.04110   0.04947   -0.293614           
         N         N         0.38755   0.14176   0.07201   -0.290940           
         N         N         0.53407   0.23519   0.03012   -0.282142           
         N         N         0.63311   0.39596   0.03015   -0.284664           
         N         N         0.64166   0.22223   0.97633   -0.285166           
         N         N         0.74253   0.38382   0.95836   -0.286808           
         N         N         0.55713   0.80890   0.90824   -0.292582           
         N         N         0.60835   0.70667   0.05496   -0.280540           
         N         N         0.66866   0.91197   0.93465   -0.290530           
         N         N         0.71629   0.80997   0.11314   -0.297550           
         N         N         0.86320   0.89840   0.05269   -0.287987           
         N         N         0.97137   0.88292   0.97269   -0.289574           
         N         N         0.88288   0.47833   0.98349   -0.292109           
         N         N         0.72787   0.17047   0.02920   -0.295634           
         N         N         0.70834   0.05399   0.06295   -0.298793           
         H         H         0.28921   0.69043   0.55662   0.060941  
         H         H         0.33924   0.68809   0.36579   0.108951  
         H         H         0.38837   0.68309   0.32493   0.106018  
         H         H         0.41557   0.77023   0.61558   0.112147  
         H         H         0.36490   0.77453   0.66804   0.119245  
         H         H         0.46759   0.76631   0.39213   0.068823  
         H         H         0.45895   0.69193   0.44084   0.108665  
         H         H         0.55538   0.72946   0.43810   0.107355  
         H         H         0.52189   0.78630   0.38290   0.114268  
         H         H         0.58800   0.78078   0.43054   0.063296  
         H         H         0.44344   0.65844   0.60094   0.110606  
         H         H         0.43128   0.61010   0.68454   0.101822  
         H         H         0.47884   0.60038   0.62674   0.102606  
         H         H         0.55250   0.68719   0.37791   0.103994  
         H         H         0.52678   0.59041   0.40988   0.106675  
         H         H         0.61934   0.62504   0.43819   0.111178  
         H         H         0.57647   0.68503   0.51930   0.110956  
         H         H         0.65090   0.67873   0.46360   0.067978  
         H         H         0.54869   0.55655   0.37131   0.066788  
         H         H         0.53141   0.51465   0.46453   0.111173  
         H         H         0.52582   0.46505   0.48815   0.119882  
         H         H         0.62727   0.50534   0.42151   0.108868  
         H         H         0.63226   0.55513   0.40636   0.118510  
         H         H         0.60807   0.46564   0.54437   0.062917  
         H         H         0.00319   0.61572   0.51408   0.068565  
         H         H         0.07113   0.60716   0.51876   0.107745  
         H         H         0.13270   0.70244   0.50815   0.103066  
         H         H         0.03789   0.66827   0.50759   0.112251  
         H         H         0.11260   0.73680   0.52961   0.067862  
         H         H         0.11398   0.60127   0.42463   0.109704  
         H         H         0.15983   0.59385   0.40261   0.099967  
         H         H         0.20648   0.63632   0.45281   0.102953  
         H         H         0.15750   0.69412   0.58604   0.103351  
         H         H         0.23754   0.67062   0.55185   0.101595  
         H         H         0.29035   0.76580   0.58682   0.109549  
         H         H         0.19935   0.72810   0.53981   0.107606  
         H         H         0.13115   0.77793   0.41993   0.113036  
         H         H         0.13455   0.82754   0.41800   0.113728  
         H         H         0.03524   0.78605   0.45407   0.116778  
         H         H         0.03095   0.73651   0.46686   0.121031  
         H         H         0.05128   0.82779   0.37253   0.071168  
         H         H         0.11957   0.89660   0.44697   0.104481  
         H         H         0.07707   0.95513   0.49440   0.099898  
         H         H         0.02869   0.86066   0.40030   0.117014  
         H         H         0.15359   0.93049   0.49106   0.101534  
         H         H         0.20912   0.02551   0.52707   0.109629  
         H         H         0.16456   0.03277   0.53505   0.100753  
         H         H         0.11568   0.99002   0.51051   0.100035  
         H         H         0.18569   0.92315   0.49161   0.106267  
         H         H         0.27906   0.95649   0.50447   0.111554  
         H         H         0.24540   0.01848   0.50852   0.108587  
         H         H         0.20305   0.88877   0.48119   0.067380  
         H         H         0.31173   0.00916   0.52483   0.066941  
         H         H         0.18711   0.84623   0.55954   0.112027  
         H         H         0.18305   0.79626   0.56102   0.115381  
         H         H         0.28644   0.83602   0.46731   0.112842  
         H         H         0.28989   0.88624   0.47474   0.120085  
         H         H         0.26618   0.79802   0.60869   0.070005  
         H         H         0.35771   0.04431   0.49351   0.110280  
         H         H         0.40544   0.09108   0.50832   0.115664  
         H         H         0.35530   0.14307   0.56815   0.109029  
         H         H         0.30736   0.09629   0.55558   0.115067  
         H         H         0.40387   0.17684   0.49315   0.067753  
         H         H         0.47047   0.17212   0.54342   0.116657  
         H         H         0.52835   0.26694   0.52794   0.104071  
         H         H         0.43292   0.22807   0.51764   0.101640  
         H         H         0.52400   0.19367   0.54800   0.065673  
         H         H         0.53049   0.30491   0.54252   0.098602  
         H         H         0.49833   0.36258   0.48153   0.109621  
         H         H         0.44938   0.31855   0.46559   0.105303  
         H         H         0.44054   0.26788   0.48393   0.104601  
         H         H         0.57139   0.33729   0.52438   0.104127  
         H         H         0.62856   0.43184   0.53772   0.107925  
         H         H         0.53538   0.39709   0.51627   0.109498  
         H         H         0.62220   0.35501   0.53159   0.062628  
         H         H         0.57171   0.18939   0.39288   0.111969  
         H         H         0.61921   0.18600   0.38328   0.114224  
         H         H         0.65149   0.27818   0.59149   0.107508  
         H         H         0.60285   0.28121   0.61091   0.111898  
         H         H         0.67190   0.35050   0.36800   0.107571  
         H         H         0.72007   0.34637   0.34647   0.112916  
         H         H         0.74730   0.43550   0.61302   0.109215  
         H         H         0.69854   0.43932   0.63971   0.118059  
         H         H         0.79678   0.43202   0.43334   0.069978  
         H         H         0.69979   0.27154   0.44181   0.064518  
         H         H         0.68982   0.19486   0.46854   0.111665  
         H         H         0.78436   0.22836   0.47325   0.107587  
         H         H         0.75020   0.28906   0.45684   0.105260  
         H         H         0.79187   0.35861   0.45976   0.111036  
         H         H         0.89114   0.39741   0.42727   0.098997  
         H         H         0.85036   0.45347   0.43550   0.115739  
         H         H         0.82289   0.26326   0.49970   0.114039  
         H         H         0.87316   0.30717   0.50122   0.103398  
         H         H         0.88225   0.35784   0.47943   0.104715  
         H         H         0.79041   0.32081   0.44066   0.102155  
         H         H         0.92406   0.44862   0.40902   0.060753  
         H         H         0.62894   0.81482   0.43610   0.108521  
         H         H         0.67699   0.86125   0.44664   0.112394  
         H         H         0.63922   0.91335   0.38001   0.109249  
         H         H         0.59129   0.86647   0.36263   0.117192  
         H         H         0.68355   0.71213   0.56357   0.107715  
         H         H         0.73113   0.75921   0.57802   0.116979  
         H         H         0.68320   0.81063   0.60389   0.111255  
         H         H         0.63567   0.76353   0.58915   0.109848  
         H         H         0.66338   0.94470   0.55936   0.066567  
         H         H         0.73207   0.84459   0.53268   0.068429  
         H         H         0.74055   0.93919   0.47029   0.111235  
         H         H         0.79420   0.03424   0.54032   0.104042  
         H         H         0.69711   0.99933   0.56143   0.114984  
         H         H         0.79734   0.83923   0.59264   0.112068  
         H         H         0.86109   0.93335   0.52171   0.106510  
         H         H         0.76491   0.89564   0.52303   0.108001  
         H         H         0.87735   0.96342   0.31754   0.112555  
         H         H         0.88962   0.01109   0.22124   0.098607  
         H         H         0.84103   0.02164   0.30141   0.102371  
         H         H         0.76691   0.93914   0.60953   0.108819  
         H         H         0.85357   0.85890   0.55730   0.061842  
         H         H         0.88488   0.85401   0.61360   0.109349  
         H         H         0.93556   0.85061   0.56378   0.119442  
         H         H         0.99904   0.94169   0.38463   0.102368  
         H         H         0.94820   0.94500   0.43136   0.111738  
         H         H         0.02558   0.93634   0.49372   0.057293  
         H         H         0.95550   0.48242   0.51280   0.105601  
         H         H         0.00402   0.52886   0.52158   0.112737  
         H         H         0.96713   0.58098   0.44718   0.110182  
         H         H         0.91869   0.53456   0.43774   0.113830  
         H         H         0.70672   0.16094   0.48261   0.067783  
         H         H         0.69567   0.11862   0.50587   0.110466  
         H         H         0.68914   0.06900   0.53406   0.119336  
         H         H         0.78480   0.10963   0.53812   0.105737  
         H         H         0.79068   0.15946   0.51768   0.117666  
         H         H         0.77020   0.06788   0.59889   0.060385  
         C         C         0.29352   0.71375   0.56111   0.077171  
         C         C         0.34803   0.73153   0.52615   0.195378  
         C         C         0.35517   0.70572   0.42658   -0.165233           
         C         C         0.38310   0.70311   0.39901   -0.146932           
         C         C         0.40583   0.72640   0.46225   0.197807  
         C         C         0.39923   0.75249   0.55770   -0.172321           
         C         C         0.37081   0.75487   0.58910   -0.139873           
         C         C         0.46121   0.74333   0.41276   0.081256  
         C         C         0.48766   0.73911   0.40983   0.061945  
         C         C         0.48250   0.71052   0.43114   -0.138316           
         C         C         0.50639   0.70633   0.44230   0.069314  
         C         C         0.53645   0.73163   0.42655   -0.158057           
         C         C         0.54206   0.76025   0.40482   0.053151  
         C         C         0.51748   0.76390   0.39656   -0.168233           
         C         C         0.57203   0.78597   0.40711   0.081045  
         C         C         0.49907   0.67664   0.48368   0.071926  
         C         C         0.46490   0.65422   0.56765   -0.127184           
         C         C         0.45801   0.62690   0.61513   -0.091520           
         C         C         0.48480   0.62125   0.58049   -0.136219           
         C         C         0.51919   0.64320   0.49692   0.069832  
         C         C         0.52574   0.67053   0.44887   -0.171262           
         C         C         0.54762   0.63830   0.46923   0.070508  
         C         C         0.54719   0.60944   0.43233   -0.161041           
         C         C         0.57261   0.60457   0.42342   0.064533  
         C         C         0.59991   0.62913   0.44399   -0.157131           
         C         C         0.60127   0.65806   0.47593   0.055872  
         C         C         0.57501   0.66233   0.48935   -0.152848           
         C         C         0.62948   0.68356   0.49880   0.074882  
         C         C         0.56899   0.57392   0.40422   0.074603  
         C         C         0.58257   0.53868   0.43461   0.195998  
         C         C         0.55245   0.51288   0.45604   -0.171583           
         C         C         0.54906   0.48501   0.46988   -0.144560           
         C         C         0.57538   0.48156   0.46236   0.193804  
         C         C         0.60595   0.50724   0.43451   -0.170122           
         C         C         0.60910   0.53514   0.42359   -0.142374           
         C         C         0.58738   0.44752   0.51722   0.089826  
         C         C         0.58210   0.41728   0.52535   0.065394  
         C         C         0.05031   0.90840   0.44858   0.065007  
         C         C         0.02158   0.60970   0.50785   0.075377  
         C         C         0.05161   0.63491   0.51353   0.052831  
         C         C         0.07629   0.63020   0.51518   -0.137871           
         C         C         0.10573   0.65404   0.51492   0.074711  
         C         C         0.10970   0.68323   0.51474   -0.154362           
         C         C         0.08552   0.68840   0.51235   0.060228  
         C         C         0.05626   0.66402   0.51218   -0.147206           
         C         C         0.09183   0.71896   0.50207   0.085630  
         C         C         0.13257   0.64870   0.50486   0.071272  
         C         C         0.13337   0.62017   0.45591   -0.130804           
         C         C         0.15963   0.61606   0.44049   -0.093949           
         C         C         0.18594   0.64009   0.46998   -0.145551           
         C         C         0.18585   0.66888   0.52073   0.069118  
         C         C         0.15865   0.67230   0.53986   -0.167570           
         C         C         0.21386   0.69530   0.54631   0.065300  
         C         C         0.23911   0.69262   0.55483   -0.165723           
         C         C         0.26676   0.71780   0.56690   0.069701  
         C         C         0.26885   0.74647   0.57690   -0.140165           
         C         C         0.24404   0.74967   0.56952   0.063072  
         C         C         0.21706   0.72419   0.55257   -0.141428           
         C         C         0.07983   0.75348   0.45083   0.192005  
         C         C         0.10958   0.77946   0.43308   -0.169718           
         C         C         0.11187   0.80740   0.42936   -0.131919           
         C         C         0.08558   0.81068   0.43570   0.189950  
         C         C         0.05623   0.78458   0.44806   -0.173793           
         C         C         0.05357   0.75669   0.45576   -0.144030           
         C         C         0.07154   0.84547   0.40443   0.075193  
         C         C         0.07457   0.87583   0.41990   0.057953  
         C         C         0.10098   0.90096   0.44608   -0.150849           
         C         C         0.10280   0.93001   0.47306   0.067148  
         C         C         0.07695   0.93312   0.47332   -0.167924           
         C         C         0.04948   0.87966   0.41921   -0.134902           
         C         C         0.13084   0.95651   0.49872   0.066888  
         C         C         0.15612   0.95299   0.50029   -0.163824           
         C         C         0.18466   0.97702   0.50956   0.071068  
         C         C         0.18730   0.00607   0.52216   -0.121157           
         C         C         0.16207   0.01018   0.52605   -0.088975           
         C         C         0.13416   0.98587   0.51392   -0.141414           
         C         C         0.21136   0.97167   0.50144   0.070399  
         C         C         0.20780   0.94242   0.49478   -0.155918           
         C         C         0.23184   0.93684   0.49549   0.066591  
         C         C         0.26080   0.96101   0.50071   -0.154552           
         C         C         0.26531   0.99026   0.50426   0.055318  
         C         C         0.24067   0.99530   0.50430   -0.148004           
         C         C         0.22544   0.90589   0.49620   0.075213  
         C         C         0.29495   0.01537   0.51553   0.076069  
         C         C         0.23915   0.87006   0.51807   0.195764  
         C         C         0.20889   0.84430   0.54076   -0.165132           
         C         C         0.20640   0.81617   0.54178   -0.144485           
         C         C         0.23370   0.81254   0.52135   0.196918  
         C         C         0.26437   0.83818   0.49181   -0.173146           
         C         C         0.26663   0.86628   0.49377   -0.133306           
         C         C         0.24707   0.77942   0.57101   0.094050  
         C         C         0.32869   0.06710   0.52562   0.197938  
         C         C         0.35681   0.06576   0.51069   -0.167028           
         C         C         0.38374   0.09183   0.51803   -0.137091           
         C         C         0.38425   0.12027   0.53596   0.196341  
         C         C         0.35609   0.12160   0.55146   -0.162021           
         C         C         0.32906   0.09554   0.54557   -0.133570           
         C         C         0.41938   0.17179   0.52197   0.065345  
         C         C         0.44872   0.19764   0.53105   0.053555  
         C         C         0.47370   0.19447   0.53857   -0.155615           
         C         C         0.50217   0.21980   0.53825   0.063202  
         C         C         0.50539   0.24824   0.53108   -0.127231           
         C         C         0.48086   0.25223   0.52546   0.068452  
         C         C         0.45248   0.22635   0.52540   -0.170970           
         C         C         0.52900   0.21665   0.53805   0.077563  
         C         C         0.48518   0.28247   0.51458   0.066816  
         C         C         0.51291   0.30793   0.52377   -0.176075           
         C         C         0.51854   0.33709   0.51324   0.061662  
         C         C         0.49500   0.34053   0.49256   -0.134289           
         C         C         0.46719   0.31558   0.48331   -0.079864           
         C         C         0.46217   0.28681   0.49442   -0.140222           
         C         C         0.54853   0.36317   0.52188   0.064544  
         C         C         0.57368   0.35954   0.52611   -0.163811           
         C         C         0.60231   0.38395   0.53202   0.069512  
         C         C         0.60622   0.41301   0.53335   -0.141963           
         C         C         0.55340   0.39243   0.52119   -0.140964           
         C         C         0.62794   0.37860   0.53054   0.074755  
         C         C         0.58318   0.23549   0.51051   0.196623  
         C         C         0.68143   0.39528   0.50994   0.199157  
         C         C         0.58836   0.20860   0.44284   -0.159441           
         C         C         0.61524   0.20671   0.43311   -0.140909           
         C         C         0.63877   0.23157   0.48420   0.196526  
         C         C         0.63427   0.25874   0.54649   -0.167733           
         C         C         0.60698   0.26052   0.55886   -0.144700           
         C         C         0.68778   0.36888   0.42661   -0.162656           
         C         C         0.71507   0.36665   0.41074   -0.147657           
         C         C         0.73756   0.39070   0.47307   0.199203  
         C         C         0.73130   0.41707   0.55561   -0.168734           
         C         C         0.70391   0.41924   0.57268   -0.141585           
         C         C         0.79162   0.40903   0.44476   0.073032  
         C         C         0.81865   0.40573   0.44167   0.063950  
         C         C         0.69260   0.24817   0.45911   0.074721  
         C         C         0.71786   0.24260   0.46000   0.061647  
         C         C         0.71286   0.21345   0.46587   -0.130560           
         C         C         0.73710   0.20871   0.46959   0.060910  
         C         C         0.76648   0.23329   0.46874   -0.149862           
         C         C         0.77194   0.26268   0.46560   0.065119  
         C         C         0.74722   0.26675   0.45973   -0.169663           
         C         C         0.81549   0.37726   0.44842   -0.142505           
         C         C         0.84102   0.37336   0.44458   0.067925  
         C         C         0.87043   0.39923   0.43218   -0.175337           
         C         C         0.87362   0.42791   0.43168   0.058336  
         C         C         0.84750   0.43109   0.43657   -0.166061           
         C         C         0.80246   0.28864   0.46941   0.064439  
         C         C         0.83676   0.34323   0.45748   0.060557  
         C         C         0.82655   0.28526   0.48504   -0.133755           
         C         C         0.85508   0.31014   0.48605   -0.081781           
         C         C         0.86024   0.33888   0.47301   -0.138398           
         C         C         0.80839   0.31776   0.45534   -0.171876           
         C         C         0.90371   0.45381   0.43197   0.068212  
         C         C         0.60638   0.83746   0.39932   0.194300  
         C         C         0.65664   0.73467   0.56861   0.194205  
         C         C         0.63102   0.83615   0.42166   -0.163375           
         C         C         0.65805   0.86204   0.42791   -0.155785           
         C         C         0.66082   0.89033   0.41987   0.193994  
         C         C         0.63656   0.89182   0.39570   -0.174262           
         C         C         0.60997   0.86576   0.38423   -0.136175           
         C         C         0.68369   0.73353   0.56724   -0.166439           
         C         C         0.71034   0.75971   0.57600   -0.137523           
         C         C         0.71144   0.78804   0.58418   0.201484  
         C         C         0.68384   0.78924   0.59189   -0.165277           
         C         C         0.65701   0.76300   0.58491   -0.136420           
         C         C         0.68646   0.94075   0.50579   0.077115  
         C         C         0.74723   0.83944   0.56415   0.071273  
         C         C         0.77744   0.86499   0.56523   0.056035  
         C         C         0.71550   0.96636   0.51924   0.054922  
         C         C         0.74254   0.96199   0.49570   -0.132268           
         C         C         0.77130   0.98612   0.50094   0.074121  
         C         C         0.77237   0.01508   0.53235   -0.164653           
         C         C         0.74596   0.01988   0.55243   0.060063  
         C         C         0.71726   0.99526   0.54723   -0.150274           
         C         C         0.80199   0.86152   0.57554   -0.158416           
         C         C         0.83193   0.88634   0.56112   0.063424  
         C         C         0.83731   0.91469   0.53504   -0.126652           
         C         C         0.81354   0.91869   0.52190   0.070908  
         C         C         0.78335   0.89354   0.53986   -0.164731           
         C         C         0.80043   0.98099   0.46188   0.068022  
         C         C         0.82109   0.94784   0.47264   0.075159  
         C         C         0.85580   0.96870   0.36421   -0.131756           
         C         C         0.86266   0.99539   0.30823   -0.093880           
         C         C         0.83533   0.00155   0.35539   -0.141658           
         C         C         0.79395   0.95461   0.52130   -0.170197           
         C         C         0.85873   0.88226   0.55532   0.083342  
         C         C         0.91320   0.89997   0.52287   0.208418  
         C         C         0.90985   0.87320   0.56061   -0.157764           
         C         C         0.93806   0.87109   0.53342   -0.134165           
         C         C         0.97055   0.89569   0.47341   0.198435  
         C         C         0.97400   0.92255   0.43628   -0.173868           
         C         C         0.94579   0.92455   0.46180   -0.148606           
         C         C         0.02302   0.91302   0.46428   0.072632  
         C         C         0.93393   0.50528   0.46984   0.197240  
         C         C         0.95825   0.50380   0.49400   -0.173434           
         C         C         0.98530   0.52968   0.50100   -0.141058           
         C         C         0.98909   0.55807   0.48628   0.196181  
         C         C         0.96463   0.55958   0.46372   -0.163898           
         C         C         0.93757   0.53368   0.45656   -0.134734           
         C         C         0.73060   0.17817   0.48112   0.080783  
         C         C         0.74402   0.14290   0.51061   0.194077  
         C         C         0.71507   0.11702   0.51595   -0.169711           
         C         C         0.71120   0.08906   0.53160   -0.147760           
         C         C         0.73599   0.08554   0.53997   0.196476  
         C         C         0.76490   0.11140   0.53443   -0.172420           
         C         C         0.76856   0.13938   0.52125   -0.139952           
         C         C         0.74958   0.05037   0.56891   0.084830  
         N         N         0.32082   0.73615   0.55670   -0.284822           
         N         N         0.43233   0.72143   0.43831   -0.279507           
         N         N         0.58810   0.56806   0.43099   -0.299202           
         N         N         0.56898   0.45241   0.47872   -0.296126           
         N         N         0.01754   0.58240   0.49508   -0.291959           
         N         N         0.07374   0.72421   0.46274   -0.300877           
         N         N         0.09082   0.84005   0.43253   -0.302249           
         N         N         0.24519   0.89955   0.51387   -0.297759           
         N         N         0.22848   0.78348   0.52957   -0.303450           
         N         N         0.30024   0.04274   0.51753   -0.290223           
         N         N         0.41281   0.14488   0.54184   -0.290727           
         N         N         0.55664   0.23941   0.52625   -0.288890           
         N         N         0.65546   0.40033   0.52770   -0.286618           
         N         N         0.66402   0.22660   0.47518   -0.284539           
         N         N         0.76390   0.38640   0.45715   -0.282667           
         N         N         0.57838   0.81283   0.38773   -0.296914           
         N         N         0.62902   0.70998   0.55391   -0.290552           
         N         N         0.68824   0.91501   0.43548   -0.277208           
         N         N         0.73995   0.81266   0.59051   -0.293446           
         N         N         0.88693   0.90453   0.53997   -0.301929           
         N         N         0.99691   0.89098   0.45314   -0.280996           
         N         N         0.90572   0.48076   0.46016   -0.281703           
         N         N         0.75121   0.17229   0.49338   -0.305455           
         N         N         0.73042   0.05609   0.54218   -0.302650 

