
##########################################################################
#               Crystallographic Information Format file
#               Produced by PyCifRW module
#
#  This is a CIF file.  CIF has been adopted by the International
#  Union of Crystallography as the standard for data archiving and
#  transmission.
#
#  For information on this file format, follow the CIF links at
#  http://www.iucr.org
##########################################################################

data_image0

_cell_length_a                          64.3588
_cell_length_b                          64.4356
_cell_length_c                          8.12711
_cell_angle_alpha                       107.803
_cell_angle_beta                        54.7522
_cell_angle_gamma                       119.95
_symmetry_space_group_name_H-M          'P 1'
_space_group_name_Hall                  'P 1'
loop_
  _atom_site_type_symbol
  _atom_site_label
  _atom_site_fract_x
  _atom_site_fract_y
  _atom_site_fract_z
  _atom_site_charge
         H         H         0.19247   0.23662   0.88675   0.114462  
         H         H         0.13966   0.16114   0.94343   0.107345  
         H         H         0.21535   0.18910   0.95530   0.106150  
         H         H         0.14998   0.22120   0.87991   0.067817  
         H         H         0.24457   0.22837   0.92325   0.068187  
         H         H         0.11516   0.22738   0.98226   0.106241  
         H         H         0.07664   0.22945   0.00553   0.100824  
         H         H         0.03904   0.15264   0.94414   0.098299  
         H         H         0.07889   0.15085   0.91117   0.112274  
         H         H         0.28208   0.25550   0.89192   0.107054  
         H         H         0.32169   0.29104   0.89276   0.098468  
         H         H         0.28318   0.33571   0.98730   0.107434  
         H         H         0.24346   0.29955   0.98097   0.116980  
         H         H         0.03609   0.22681   0.16239   0.107782  
         H         H         0.99668   0.22918   0.19610   0.113926  
         H         H         0.97797   0.16035   0.89912   0.105346  
         H         H         0.01808   0.15848   0.85381   0.099657  
         H         H         0.34839   0.32139   0.97720   0.103149  
         H         H         0.38641   0.35909   0.98914   0.110763  
         H         H         0.35704   0.39901   0.89649   0.107684  
         H         H         0.31974   0.36212   0.88225   0.100445  
         H         H         0.12601   0.13302   0.11602   0.110284  
         H         H         0.11629   0.09462   0.20866   0.098371  
         H         H         0.15423   0.08818   0.16257   0.102391  
         H         H         0.21334   0.15639   0.88412   0.106890  
         H         H         0.19270   0.08086   0.96488   0.101532  
         H         H         0.26953   0.11286   0.96290   0.113157  
         H         H         0.23314   0.15759   0.02665   0.111579  
         H         H         0.21266   0.05585   0.92278   0.062208  
         H         H         0.29549   0.15611   0.95008   0.064372  
         H         H         0.37587   0.42499   0.05100   0.066197  
         H         H         0.43893   0.42586   0.97684   0.107353  
         H         H         0.47887   0.50275   0.02867   0.106047  
         H         H         0.40033   0.46925   0.05310   0.113964  
         H         H         0.46174   0.52702   0.03653   0.061038  
         H         H         0.45872   0.42677   0.10794   0.104714  
         H         H         0.54606   0.45028   0.87353   0.112520  
         H         H         0.55567   0.48870   0.78306   0.099099  
         H         H         0.51755   0.49563   0.83791   0.102290  
         H         H         0.45711   0.39382   0.02940   0.106365  
         H         H         0.48095   0.34692   0.09512   0.112435  
         H         H         0.53175   0.42287   0.05810   0.110662  
         H         H         0.42974   0.35303   0.03878   0.062232  
         H         H         0.52398   0.36194   0.08339   0.064279  
         H         H         0.31760   0.18156   0.08709   0.111175  
         H         H         0.35699   0.21791   0.08014   0.104426  
         H         H         0.32484   0.26014   0.04268   0.103741  
         H         H         0.28554   0.22307   0.04424   0.114047  
         H         H         0.38602   0.24656   0.10390   0.103838  
         H         H         0.42503   0.28349   0.10730   0.115741  
         H         H         0.39718   0.32489   0.01488   0.106910  
         H         H         0.35849   0.28874   0.01299   0.095511  
         H         H         0.20294   0.02282   0.97554   0.106711  
         H         H         0.20080   0.98442   0.97907   0.106266  
         H         H         0.27650   0.01981   0.00142   0.109191  
         H         H         0.27859   0.05878   0.99481   0.120811  
         H         H         0.19773   0.95397   0.99372   0.104255  
         H         H         0.19395   0.91484   0.01427   0.118640  
         H         H         0.26877   0.94968   0.04308   0.111254  
         H         H         0.27319   0.98845   0.01842   0.108962  
         H         H         0.25916   0.91507   0.08146   0.069376  
         H         H         0.20061   0.86086   0.04114   0.107880  
         H         H         0.23092   0.81214   0.00791   0.105334  
         H         H         0.27423   0.88749   0.07288   0.115835  
         H         H         0.26828   0.82463   0.03933   0.062430  
         H         H         0.17121   0.83206   0.98558   0.115385  
         H         H         0.13115   0.79617   0.98382   0.104636  
         H         H         0.12433   0.75588   0.00625   0.105746  
         H         H         0.19879   0.78684   0.03348   0.103487  
         H         H         0.12071   0.72383   0.01859   0.100567  
         H         H         0.15234   0.68089   0.04544   0.114344  
         H         H         0.19620   0.75735   0.04461   0.112008  
         H         H         0.09803   0.68206   0.99562   0.064279  
         H         H         0.19588   0.69877   0.03026   0.063505  
         H         H         0.21700   0.69524   0.12701   0.107129  
         H         H         0.25547   0.69292   0.10233   0.101133  
         H         H         0.30681   0.76698   0.93981   0.095521  
         H         H         0.26726   0.76944   0.97354   0.110773  
         H         H         0.30140   0.81723   0.95269   0.105131  
         H         H         0.33815   0.81265   0.93604   0.093448  
         H         H         0.37026   0.88688   0.10975   0.105341  
         H         H         0.33384   0.89167   0.11638   0.115610  
         H         H         0.29383   0.68959   0.91792   0.103263  
         H         H         0.33119   0.68523   0.90091   0.115010  
         H         H         0.36576   0.76046   0.03645   0.104614  
         H         H         0.32870   0.76478   0.05677   0.092335  
         H         H         0.36013   0.81023   0.06587   0.097717  
         H         H         0.40083   0.80941   0.02986   0.109018  
         H         H         0.44883   0.88353   0.87244   0.105438  
         H         H         0.40924   0.88429   0.90200   0.106137  
         H         H         0.47068   0.88147   0.97208   0.062619  
         H         H         0.39852   0.75360   0.94822   0.060259  
         H         H         0.39195   0.69178   0.95480   0.109369  
         H         H         0.46599   0.72087   0.98541   0.108791  
         H         H         0.43701   0.76775   0.97067   0.105728  
         H         H         0.47093   0.82379   0.96110   0.107913  
         H         H         0.54708   0.85686   0.97708   0.099265  
         H         H         0.51530   0.90014   0.95650   0.113411  
         H         H         0.49469   0.74909   0.03186   0.113128  
         H         H         0.53368   0.78497   0.04694   0.108339  
         H         H         0.54041   0.82527   0.02426   0.105123  
         H         H         0.47007   0.79389   0.94487   0.100689  
         H         H         0.05721   0.65386   0.12547   0.105583  
         H         H         0.01892   0.61639   0.12259   0.102687  
         H         H         0.06690   0.57712   0.94959   0.110986  
         H         H         0.10521   0.61509   0.95896   0.119666  
         H         H         0.00201   0.58968   0.95442   0.105125  
         H         H         0.96210   0.55278   0.95562   0.111937  
         H         H         0.98776   0.51108   0.06776   0.108018  
         H         H         0.02628   0.54750   0.07813   0.097793  
         H         H         0.95968   0.48306   0.98794   0.066640  
         H         H         0.90445   0.48945   0.99111   0.106497  
         H         H         0.85503   0.41282   0.01400   0.102387  
         H         H         0.93202   0.44141   -0.00135  0.111516  
         H         H         0.87165   0.49375   0.04663   0.110071  
         H         H         0.83503   0.49770   0.05445   0.099807  
         H         H         0.79728   0.46242   0.01814   0.101784  
         H         H         0.83385   0.41786   0.95299   0.102305  
         H         H         0.76648   0.43253   -0.00079  0.098953  
         H         H         0.73281   0.35678   0.88809   0.113091  
         H         H         0.80728   0.39044   0.91743   0.106962  
         H         H         0.75586   0.33315   0.84415   0.064947  
         H         H         0.86857   0.38609   0.02698   0.068546  
         H         H         0.74494   0.30189   0.92856   0.106794  
         H         H         0.74219   0.26389   0.94776   0.106589  
         H         H         0.81788   0.30003   0.96966   0.103945  
         H         H         0.82180   0.33858   0.93210   0.111568  
         H         H         0.86873   0.35213   0.95401   0.102525  
         H         H         0.86575   0.31335   0.96454   0.096048  
         H         H         0.92898   0.34800   0.12602   0.097183  
         H         H         0.93376   0.38729   0.09518   0.120933  
         H         H         0.73485   0.23542   0.03035   0.103723  
         H         H         0.73166   0.19549   0.02080   0.118705  
         H         H         0.81440   0.22747   0.92676   0.112137  
         H         H         0.81846   0.26695   0.92511   0.100966  
         H         H         0.85374   0.28299   0.08662   0.099381  
         H         H         0.85155   0.24368   0.08334   0.114606  
         H         H         0.93155   0.27813   0.03844   0.111382  
         H         H         0.93447   0.31707   0.03298   0.105825  
         H         H         0.80080   0.19272   0.00750   0.068507  
         H         H         0.91945   0.24529   0.11970   0.066828  
         H         H         0.73914   0.13797   0.98905   0.110787  
         H         H         0.76452   0.08916   0.01451   0.112253  
         H         H         0.81420   0.16560   -0.00124  0.106533  
         H         H         0.86594   0.18851   0.04236   0.106080  
         H         H         0.89605   0.14391   0.07577   0.100790  
         H         H         0.93749   0.22034   0.10729   0.113517  
         H         H         0.83355   0.15998   0.07392   0.097993  
         H         H         0.79973   0.08515   0.92735   0.109871  
         H         H         0.83719   0.08125   0.90889   0.100416  
         H         H         0.87351   0.11624   0.96334   0.102557  
         H         H         0.71308   0.09545   0.97099   0.068756  
         H         H         0.57233   0.89732   0.96504   0.065185  
         H         H         0.59798   0.92474   0.05914   0.106364  
         H         H         0.63752   0.96099   0.05525   0.096564  
         H         H         0.61334   0.00289   0.92765   0.105798  
         H         H         0.57303   0.96607   0.93526   0.112980  
         H         H         0.93638   0.16113   0.10239   0.063228  
         H         H         0.46252   0.56015   0.09996   0.105056  
         H         H         0.46622   0.59886   0.08138   0.107837  
         H         H         0.39721   0.56406   0.98037   0.101589  
         H         H         0.39393   0.52469   0.99520   0.118106  
         H         H         0.47627   0.62852   0.96270   0.107127  
         H         H         0.47811   0.66806   0.97049   0.119642  
         H         H         0.39325   0.63428   0.10565   0.110077  
         H         H         0.39094   0.59508   0.10353   0.103392  
         H         H         0.41018   0.66516   0.94034   0.068017  
         H         H         0.54604   0.35798   0.17663   0.106108  
         H         H         0.58408   0.35443   0.14841   0.100903  
         H         H         0.63924   0.42636   0.93058   0.098809  
         H         H         0.60016   0.43013   0.97098   0.114451  
         H         H         0.61863   0.34889   0.02940   0.101360  
         H         H         0.65802   0.34557   0.98762   0.115081  
         H         H         0.70465   0.42181   0.92757   0.101443  
         H         H         0.66553   0.42542   0.97650   0.097293  
         H         H         0.72414   0.41491   0.02117   0.053371  
         H         H         0.67665   0.98882   0.93901   0.107579  
         H         H         0.71567   0.02589   0.94734   0.119364  
         H         H         0.67358   0.06767   0.05519   0.107236  
         H         H         0.63453   0.03119   0.05465   0.103435  
         C         C         0.18799   0.21846   0.90343   -0.155791           
         C         C         0.16397   0.19892   0.91264   0.066192  
         C         C         0.15868   0.17567   0.93571   -0.128938           
         C         C         0.17692   0.17155   0.95007   0.069637  
         C         C         0.20115   0.19138   0.93707   -0.167865           
         C         C         0.20676   0.21470   0.91606   0.049665  
         C         C         0.14384   0.20272   0.90642   0.077326  
         C         C         0.23127   0.23414   0.92092   0.074303  
         C         C         0.25967   0.27501   0.93508   0.205454  
         C         C         0.10001   0.18871   0.94171   0.209161  
         C         C         0.09887   0.21091   0.96947   -0.166132           
         C         C         0.07678   0.21204   0.98549   -0.117230           
         C         C         0.05461   0.19124   0.97615   0.062023  
         C         C         0.05600   0.16917   0.94742   -0.123045           
         C         C         0.07808   0.16794   0.93061   -0.150859           
         C         C         0.28205   0.27298   0.91246   -0.161419           
         C         C         0.30470   0.29331   0.91257   -0.122160           
         C         C         0.30629   0.31661   0.93516   0.060878  
         C         C         0.28343   0.31828   0.96295   -0.129269           
         C         C         0.26085   0.29810   0.96197   -0.147789           
         C         C         0.03055   0.19246   0.00367   0.053970  
         C         C         0.33002   0.33847   0.93578   0.052248  
         C         C         0.02391   0.21238   0.09983   -0.119943           
         C         C         0.00150   0.21369   0.12256   -0.155480           
         C         C         0.98400   0.19479   0.05603   0.200777  
         C         C         0.99015   0.17463   0.96237   -0.177736           
         C         C         0.01301   0.17370   0.93588   -0.128667           
         C         C         0.34997   0.33825   0.95911   -0.126408           
         C         C         0.37152   0.35944   0.96625   -0.155976           
         C         C         0.37396   0.38189   0.95205   0.200558  
         C         C         0.35467   0.38216   0.92182   -0.175342           
         C         C         0.33340   0.36107   0.91407   -0.123718           
         C         C         0.17052   0.14778   0.99461   0.077920  
         C         C         0.14308   0.12983   0.08410   -0.126956           
         C         C         0.13762   0.10832   0.13835   -0.096470           
         C         C         0.15903   0.10449   0.10974   -0.141376           
         C         C         0.18663   0.12214   0.02113   0.068043  
         C         C         0.19184   0.14323   0.96095   -0.169742           
         C         C         0.20975   0.11948   -0.00238  0.073433  
         C         C         0.20959   0.09688   0.97516   -0.161256           
         C         C         0.23077   0.09443   0.96520   0.063988  
         C         C         0.25323   0.11500   0.97066   -0.149377           
         C         C         0.25402   0.13762   0.98939   0.049910  
         C         C         0.23218   0.13969   0.00522   -0.129452           
         C         C         0.22875   0.07055   0.95385   0.081894  
         C         C         0.27720   0.15887   -0.00251  0.075557  
         C         C         0.29897   0.19962   0.06013   0.198993  
         C         C         0.24134   0.04398   0.98312   0.199950  
         C         C         0.39424   0.42300   0.01222   0.077437  
         C         C         0.41706   0.44503   0.01893   0.052514  
         C         C         0.43952   0.44360   -0.00146  -0.149633           
         C         C         0.46196   0.46406   0.00278   0.074187  
         C         C         0.46183   0.48645   0.02325   -0.160502           
         C         C         0.43992   0.48839   0.03967   0.065011  
         C         C         0.41715   0.46749   0.04080   -0.158025           
         C         C         0.44248   0.51233   0.04467   0.076363  
         C         C         0.48522   0.46155   0.97796   0.069656  
         C         C         0.48008   0.44022   0.03400   -0.174591           
         C         C         0.50143   0.43561   -0.00141  0.073136  
         C         C         0.52887   0.45355   0.90853   -0.126673           
         C         C         0.53427   0.47517   0.85645   -0.088432           
         C         C         0.51276   0.47926   0.88965   -0.140394           
         C         C         0.49503   0.41176   0.04223   0.069314  
         C         C         0.47120   0.39167   0.04985   -0.164150           
         C         C         0.46600   0.36845   0.06961   0.056590  
         C         C         0.48482   0.36506   0.08406   -0.170725           
         C         C         0.50827   0.38479   0.08103   0.067626  
         C         C         0.51314   0.40806   0.06160   -0.133030           
         C         C         0.44221   0.34825   0.06008   0.077861  
         C         C         0.52850   0.38082   0.08382   0.071874  
         C         C         0.31949   0.19867   0.07132   -0.179619           
         C         C         0.34179   0.21949   0.06946   -0.117215           
         C         C         0.34487   0.24237   0.05726   0.054952  
         C         C         0.32386   0.24310   0.04999   -0.123075           
         C         C         0.30137   0.22229   0.05292   -0.159462           
         C         C         0.36856   0.26427   0.05829   0.056532  
         C         C         0.38816   0.26349   0.08240   -0.137365           
         C         C         0.41030   0.28423   0.08509   -0.144293           
         C         C         0.41418   0.30692   0.06279   0.198179  
         C         C         0.39488   0.30787   0.03628   -0.162525           
         C         C         0.37270   0.28713   0.03532   -0.125285           
         C         C         0.21930   0.02246   0.98023   -0.174719           
         C         C         0.21807   0.00046   0.98326   -0.124540           
         C         C         0.23834   0.99845   0.99150   0.057687  
         C         C         0.26031   0.02009   0.99419   -0.130010           
         C         C         0.26172   0.04224   0.99043   -0.154602           
         C         C         0.23591   0.97487   0.00365   0.054906  
         C         C         0.21349   0.95344   0.00472   -0.131072           
         C         C         0.21106   0.93124   0.01703   -0.148651           
         C         C         0.23065   0.92906   0.03141   0.196660  
         C         C         0.25308   0.95037   0.03207   -0.172040           
         C         C         0.25558   0.97256   0.01734   -0.127459           
         C         C         0.24164   0.90109   0.06254   0.076766  
         C         C         0.23754   0.87648   0.05690   0.060771  
         C         C         0.21514   0.85682   0.04072   -0.149876           
         C         C         0.21198   0.83325   0.02374   0.066208  
         C         C         0.23208   0.82999   0.02367   -0.166193           
         C         C         0.25423   0.84917   0.04254   0.065695  
         C         C         0.25691   0.87261   0.05943   -0.134820           
         C         C         0.27390   0.84384   0.04103   0.082453  
         C         C         0.18819   0.81222   0.01213   0.066577  
         C         C         0.16866   0.81450   -0.00221  -0.131549           
         C         C         0.14598   0.79417   -0.00357  -0.081650           
         C         C         0.14219   0.77126   0.00864   -0.142476           
         C         C         0.16143   0.76822   0.02092   0.069064  
         C         C         0.18405   0.78897   0.02186   -0.176586           
         C         C         0.15851   0.74429   0.03380   0.067399  
         C         C         0.13631   0.72302   0.03007   -0.173214           
         C         C         0.13397   0.70035   0.03525   0.056000  
         C         C         0.15412   0.69861   0.04524   -0.165329           
         C         C         0.17631   0.71939   0.04970   0.063838  
         C         C         0.17821   0.74195   0.04475   -0.138574           
         C         C         0.11124   0.67891   0.02142   0.073053  
         C         C         0.19821   0.71725   0.04537   0.076950  
         C         C         0.31505   0.85512   0.03596   0.201528  
         C         C         0.23971   0.73251   0.04443   0.207090  
         C         C         0.23684   0.71092   0.08100   -0.170827           
         C         C         0.25873   0.70960   0.06609   -0.126270           
         C         C         0.28469   0.72957   0.01344   0.064554  
         C         C         0.28710   0.75120   0.98270   -0.124780           
         C         C         0.26508   0.75272   0.00011   -0.144900           
         C         C         0.31621   0.83260   0.98944   -0.167410           
         C         C         0.33708   0.83000   0.98026   -0.131354           
         C         C         0.35766   0.84953   0.01673   0.055789  
         C         C         0.35571   0.87173   0.06977   -0.119050           
         C         C         0.33516   0.87448   0.07714   -0.142918           
         C         C         0.30790   0.72747   0.99216   0.058270  
         C         C         0.38106   0.84770   0.99486   0.064638  
         C         C         0.30931   0.70512   0.94702   -0.127222           
         C         C         0.33033   0.70257   0.93511   -0.149195           
         C         C         0.35129   0.72231   0.96561   0.207684  
         C         C         0.35040   0.74485   0.00647   -0.175727           
         C         C         0.32925   0.74727   0.01888   -0.113694           
         C         C         0.37950   0.82639   0.02402   -0.130267           
         C         C         0.40211   0.82578   0.00492   -0.157878           
         C         C         0.42718   0.84649   0.95926   0.208620  
         C         C         0.42919   0.86760   0.92214   -0.162277           
         C         C         0.40670   0.86807   0.93976   -0.122331           
         C         C         0.46900   0.86324   0.95697   0.080740  
         C         C         0.49110   0.86164   0.95412   0.067230  
         C         C         0.39301   0.73462   0.95507   0.076789  
         C         C         0.41280   0.73027   0.96055   0.067653  
         C         C         0.40962   0.70707   0.96124   -0.139116           
         C         C         0.42884   0.70412   0.97276   0.062773  
         C         C         0.45155   0.72430   0.97951   -0.143223           
         C         C         0.45531   0.74761   0.97805   0.065212  
         C         C         0.43541   0.75009   0.96938   -0.161789           
         C         C         0.48907   0.83911   0.95979   -0.131434           
         C         C         0.50872   0.83660   0.96913   0.072721  
         C         C         0.53119   0.85770   0.96950   -0.173630           
         C         C         0.53347   0.88045   0.96706   0.054637  
         C         C         0.51324   0.88241   0.95951   -0.160057           
         C         C         0.47902   0.76880   0.98845   0.065153  
         C         C         0.50539   0.81265   0.98379   0.071679  
         C         C         0.49752   0.76658   0.01571   -0.138435           
         C         C         0.51959   0.78693   0.02521   -0.082936           
         C         C         0.52349   0.80977   0.01093   -0.142954           
         C         C         0.48362   0.79193   0.97180   -0.176887           
         C         C         0.08487   0.63734   0.03024   0.199492  
         C         C         0.05995   0.63727   0.07949   -0.174503           
         C         C         0.03821   0.61598   0.07818   -0.125583           
         C         C         0.04015   0.59377   0.02745   0.063463  
         C         C         0.06467   0.59388   0.98654   -0.126637           
         C         C         0.08640   0.61511   0.98935   -0.144318           
         C         C         0.01729   0.57167   0.01801   0.050980  
         C         C         0.99867   0.57259   0.98383   -0.131605           
         C         C         0.97645   0.55197   0.98156   -0.150934           
         C         C         0.97213   0.52929   0.00844   0.196943  
         C         C         0.99093   0.52815   0.03955   -0.164042           
         C         C         0.01286   0.54888   0.04520   -0.122324           
         C         C         0.94495   0.48794   -0.00371  0.077690  
         C         C         0.92051   0.46768   0.99527   0.052773  
         C         C         0.90047   0.47107   0.99553   -0.135596           
         C         C         0.87678   0.45166   -0.00147  0.071097  
         C         C         0.87355   0.42848   0.00400   -0.156424           
         C         C         0.89327   0.42467   0.00252   0.062704  
         C         C         0.91700   0.44450   -0.00322  -0.148392           
         C         C         0.85534   0.45511   0.00163   0.075107  
         C         C         0.85550   0.47781   0.02759   -0.132977           
         C         C         0.83458   0.48002   0.03389   -0.091152           
         C         C         0.81312   0.45998   0.01393   -0.148564           
         C         C         0.81254   0.43706   0.98400   0.069832  
         C         C         0.83384   0.43536   0.97857   -0.172171           
         C         C         0.79070   0.41512   0.95699   0.069703  
         C         C         0.76828   0.41567   0.96893   -0.168043           
         C         C         0.74758   0.39492   0.94383   0.072536  
         C         C         0.74907   0.37278   0.90585   -0.137615           
         C         C         0.77071   0.37163   0.89923   0.066610  
         C         C         0.79127   0.39270   0.92291   -0.142258           
         C         C         0.77091   0.34848   0.88145   0.094082  
         C         C         0.88830   0.40033   0.01507   0.077747  
         C         C         0.78414   0.32342   0.92336   0.200550  
         C         C         0.90148   0.37285   0.02623   0.194160  
         C         C         0.76146   0.30178   0.93269   -0.169693           
         C         C         0.75971   0.28003   0.94724   -0.121416           
         C         C         0.77983   0.27839   0.95956   0.052512  
         C         C         0.80223   0.30011   0.95404   -0.127996           
         C         C         0.80446   0.32201   0.93455   -0.157609           
         C         C         0.88199   0.35149   0.99246   -0.170617           
         C         C         0.88014   0.32936   0.00042   -0.112053           
         C         C         0.89679   0.32718   0.04850   0.046656  
         C         C         0.91608   0.34863   0.08377   -0.128932           
         C         C         0.91870   0.37086   0.06905   -0.159584           
         C         C         0.77711   0.25484   0.97536   0.059493  
         C         C         0.89443   0.30357   0.05869   0.057831  
         C         C         0.75257   0.23404   0.00595   -0.133361           
         C         C         0.75044   0.21143   0.00219   -0.142656           
         C         C         0.77234   0.20824   0.97447   0.198353  
         C         C         0.79677   0.22894   0.94941   -0.164263           
         C         C         0.79899   0.25158   0.94939   -0.117222           
         C         C         0.87112   0.28224   0.07371   -0.131635           
         C         C         0.86964   0.25993   0.07268   -0.139547           
         C         C         0.89104   0.25766   0.06163   0.194225  
         C         C         0.91433   0.27894   0.04890   -0.169665           
         C         C         0.91592   0.30118   0.04682   -0.122340           
         C         C         0.78263   0.17912   0.99434   0.078332  
         C         C         0.77687   0.15429   0.00004   0.064486  
         C         C         0.90316   0.23066   0.09049   0.077998  
         C         C         0.90079   0.20669   0.08437   0.057034  
         C         C         0.75354   0.13467   -0.00276  -0.154079           
         C         C         0.74960   0.11134   0.00086   0.055979  
         C         C         0.76882   0.10761   0.00871   -0.151853           
         C         C         0.79249   0.12681   0.00701   0.069899  
         C         C         0.79593   0.15007   0.00359   -0.157121           
         C         C         0.87992   0.18588   0.06045   -0.150651           
         C         C         0.87791   0.16295   0.05339   0.070355  
         C         C         0.89741   0.16135   0.07334   -0.172250           
         C         C         0.91908   0.18190   0.08875   0.067827  
         C         C         0.92057   0.20460   0.09524   -0.138003           
         C         C         0.81411   0.12326   -0.00052  0.073902  
         C         C         0.85650   0.14119   0.02054   0.069607  
         C         C         0.83475   0.14282   0.03272   -0.166076           
         C         C         0.81517   0.10082   0.95571   -0.124413           
         C         C         0.83647   0.09867   0.94444   -0.088360           
         C         C         0.85708   0.11853   0.97491   -0.144095           
         C         C         0.72598   0.09092   0.98950   0.075662  
         C         C         0.55700   0.90138   0.97388   0.064395  
         C         C         0.58287   0.94269   0.99168   0.197509  
         C         C         0.60155   0.94166   0.02476   -0.172420           
         C         C         0.62398   0.96233   0.02355   -0.119299           
         C         C         0.62889   0.98502   0.99011   0.055485  
         C         C         0.61002   0.98589   0.95844   -0.134800           
         C         C         0.58743   0.96528   0.96081   -0.148326           
         C         C         0.94036   0.17946   0.09015   0.071294  
         C         C         0.42809   0.53926   0.04385   0.195287  
         C         C         0.44857   0.56066   0.06764   -0.174239           
         C         C         0.45064   0.58280   0.05737   -0.131316           
         C         C         0.43215   0.58482   0.02788   0.054226  
         C         C         0.41157   0.56337   0.00681   -0.133111           
         C         C         0.40963   0.54117   0.01434   -0.149927           
         C         C         0.43372   0.60836   0.02608   0.053810  
         C         C         0.45800   0.62953   0.99285   -0.120934           
         C         C         0.45929   0.65182   -0.00390  -0.150789           
         C         C         0.43649   0.65399   0.02834   0.198753  
         C         C         0.41174   0.63303   0.06893   -0.178305           
         C         C         0.41053   0.61082   0.06739   -0.119668           
         C         C         0.42549   0.68014   0.97761   0.088376  
         C         C         0.57061   0.39436   0.07083   0.204462  
         C         C         0.56655   0.37294   0.12007   -0.168050           
         C         C         0.58827   0.37091   0.10226   -0.126083           
         C         C         0.61522   0.38988   0.03245   0.065020  
         C         C         0.61885   0.41129   0.98672   -0.125549           
         C         C         0.59707   0.41361   0.00844   -0.147814           
         C         C         0.63846   0.38752   0.00879   0.059781  
         C         C         0.63714   0.36510   0.01150   -0.127058           
         C         C         0.65929   0.36300   0.98627   -0.148179           
         C         C         0.68395   0.38329   0.95968   0.206640  
         C         C         0.68564   0.40574   0.95382   -0.175742           
         C         C         0.66342   0.40770   0.97938   -0.113938           
         C         C         0.72444   0.39713   0.96785   0.076376  
         C         C         0.65247   0.00689   0.99243   0.061784  
         C         C         0.67575   0.00600   0.96442   -0.131371           
         C         C         0.69795   0.02674   0.96630   -0.145492           
         C         C         0.69825   0.04951   0.99292   0.200907  
         C         C         0.67478   0.05053   0.02506   -0.170574           
         C         C         0.65255   0.02975   0.02477   -0.123508           
         N         N         0.23621   0.25637   0.92873   -0.297424           
         N         N         0.12042   0.18522   0.93269   -0.296759           
         N         N         0.27623   0.17959   0.05510   -0.282924           
         N         N         0.24453   0.06716   0.98361   -0.300651           
         N         N         0.39575   0.40250   0.96447   -0.286366           
         N         N         0.43685   0.32643   0.07335   -0.293453           
         N         N         0.22597   0.90562   0.03991   -0.304982           
         N         N         0.29597   0.86050   0.04279   -0.291636           
         N         N         0.21906   0.73563   0.05235   -0.287320           
         N         N         0.37071   0.71746   0.95935   -0.294131           
         N         N         0.44851   0.84434   0.94926   -0.297605           
         N         N         0.10744   0.65768   0.03473   -0.284996           
         N         N         0.94875   0.50986   0.00573   -0.294556           
         N         N         0.78697   0.34625   0.91644   -0.307154           
         N         N         0.90586   0.39619   0.01720   -0.294301           
         N         N         0.76707   0.18444   0.97744   -0.299367           
         N         N         0.88731   0.23428   0.06302   -0.302089           
         N         N         0.72130   0.06915   -0.00301  -0.288910           
         N         N         0.55970   0.92302   0.98767   -0.294871           
         N         N         0.96263   0.19783   0.07530   -0.280688           
         N         N         0.42414   0.51592   0.04862   -0.300038           
         N         N         0.44014   0.67705   0.02133   -0.296903           
         N         N         0.55066   0.39843   0.07848   -0.287146           
         N         N         0.70530   0.37957   0.93533   -0.290383           
         H         H         0.20576   0.23353   0.38170   0.111336  
         H         H         0.15513   0.15756   0.42858   0.111384  
         H         H         0.22937   0.18785   0.46530   0.105587  
         H         H         0.16448   0.21814   0.37445   0.064973  
         H         H         0.25718   0.22888   0.44469   0.063037  
         H         H         0.13560   0.22541   0.40677   0.109230  
         H         H         0.09771   0.22909   0.43367   0.102368  
         H         H         0.05074   0.15264   0.47716   0.099498  
         H         H         0.08947   0.14896   0.44733   0.109231  
         H         H         0.28955   0.25738   0.46574   0.107186  
         H         H         0.32701   0.29422   0.47852   0.095308  
         H         H         0.29842   0.33501   0.38338   0.103148  
         H         H         0.26016   0.29744   0.37429   0.115043  
         H         H         0.05637   0.22872   0.63854   0.104430  
         H         H         0.01728   0.23348   0.68585   0.117157  
         H         H         0.99392   0.16468   0.39868   0.103778  
         H         H         0.03226   0.15964   0.35504   0.100838  
         H         H         0.36312   0.32351   0.40740   0.102044  
         H         H         0.40131   0.36146   0.41418   0.111821  
         H         H         0.35948   0.40095   0.47642   0.107915  
         H         H         0.32144   0.36381   0.47589   0.105447  
         H         H         0.14152   0.12967   0.59713   0.111538  
         H         H         0.13258   0.09086   0.67536   0.100296  
         H         H         0.17063   0.08451   0.62761   0.102277  
         H         H         0.22828   0.15520   0.39208   0.103787  
         H         H         0.20925   0.07847   0.44944   0.105471  
         H         H         0.28530   0.11171   0.46013   0.112838  
         H         H         0.24762   0.15521   0.52337   0.108064  
         H         H         0.22601   0.05394   0.44609   0.062517  
         H         H         0.30938   0.15570   0.46969   0.065177  
         H         H         0.39200   0.42921   0.48333   0.063774  
         H         H         0.45034   0.42676   0.46857   0.111953  
         H         H         0.48960   0.50349   0.53895   0.104183  
         H         H         0.41502   0.47115   0.50988   0.111709  
         H         H         0.46802   0.52836   0.58722   0.064991  
         H         H         0.47046   0.42820   0.61265   0.107465  
         H         H         0.55860   0.45084   0.34651   0.111724  
         H         H         0.56760   0.48895   0.25415   0.100326  
         H         H         0.52874   0.49563   0.31934   0.102484  
         H         H         0.46886   0.39500   0.53473   0.107857  
         H         H         0.49401   0.34837   0.58945   0.112208  
         H         H         0.54522   0.42423   0.53960   0.106769  
         H         H         0.43942   0.35534   0.57614   0.069628  
         H         H         0.53839   0.36384   0.56494   0.062452  
         H         H         0.33088   0.18334   0.60095   0.105708  
         H         H         0.36803   0.22063   0.60828   0.100964  
         H         H         0.33727   0.25974   0.51745   0.103631  
         H         H         0.29916   0.22163   0.51471   0.111199  
         H         H         0.40228   0.24807   0.53881   0.107639  
         H         H         0.44160   0.28506   0.53808   0.117167  
         H         H         0.40480   0.32707   0.56291   0.111533  
         H         H         0.36569   0.29068   0.56599   0.098123  
         H         H         0.22253   0.02053   0.42067   0.107557  
         H         H         0.21929   0.98208   0.43733   0.102049  
         H         H         0.28899   0.01741   0.53187   0.103956  
         H         H         0.29220   0.05643   0.51336   0.119270  
         H         H         0.21252   0.95165   0.49546   0.109167  
         H         H         0.20892   0.91248   0.51379   0.119177  
         H         H         0.28564   0.94723   0.51710   0.108452  
         H         H         0.28940   0.98604   0.50077   0.104186  
         H         H         0.27249   0.91372   0.60114   0.068512  
         H         H         0.21606   0.85841   0.55076   0.109047  
         H         H         0.25124   0.81172   0.47757   0.107635  
         H         H         0.29099   0.88716   0.56923   0.108653  
         H         H         0.29389   0.82701   0.45762   0.060417  
         H         H         0.19169   0.83065   0.45422   0.109308  
         H         H         0.15230   0.79489   0.44092   0.107537  
         H         H         0.14468   0.75454   0.47104   0.104602  
         H         H         0.21423   0.78565   0.56034   0.102083  
         H         H         0.13708   0.72281   0.52735   0.100055  
         H         H         0.16902   0.67910   0.54060   0.114277  
         H         H         0.21348   0.75543   0.53915   0.108327  
         H         H         0.11140   0.68217   0.54204   0.062614  
         H         H         0.21426   0.69799   0.52295   0.064579  
         H         H         0.23669   0.69682   0.62860   0.105958  
         H         H         0.27694   0.69739   0.59943   0.102070  
         H         H         0.32390   0.77151   0.43831   0.098215  
         H         H         0.28264   0.77093   0.47267   0.108208  
         H         H         0.31793   0.81927   0.49857   0.102959  
         H         H         0.35734   0.81698   0.46022   0.091348  
         H         H         0.39275   0.89321   0.56095   0.103398  
         H         H         0.35354   0.89558   0.58917   0.115863  
         H         H         0.31666   0.69600   0.39579   0.109805  
         H         H         0.35371   0.69294   0.39393   0.115993  
         H         H         0.38404   0.76777   0.55327   0.106234  
         H         H         0.34643   0.77062   0.56696   0.093751  
         H         H         0.38101   0.81640   0.56093   0.097300  
         H         H         0.42116   0.81543   0.52919   0.110368  
         H         H         0.46987   0.88939   0.36724   0.109260  
         H         H         0.43080   0.89030   0.38953   0.103908  
         H         H         0.49201   0.88706   0.46228   0.067260  
         H         H         0.41974   0.76150   0.44681   0.065309  
         H         H         0.41159   0.69919   0.45103   0.113971  
         H         H         0.48561   0.72534   0.47629   0.109540  
         H         H         0.45811   0.77464   0.47853   0.106268  
         H         H         0.49193   0.82895   0.45249   0.111459  
         H         H         0.56711   0.86259   0.48309   0.099697  
         H         H         0.53553   0.90538   0.45328   0.115757  
         H         H         0.51640   0.75408   0.51408   0.114861  
         H         H         0.55646   0.78980   0.51675   0.103686  
         H         H         0.56350   0.83021   0.49498   0.105045  
         H         H         0.48956   0.79960   0.46168   0.102078  
         H         H         0.08688   0.65538   0.43481   0.109356  
         H         H         0.04802   0.61942   0.42641   0.096630  
         H         H         0.07143   0.57625   0.54758   0.106582  
         H         H         0.11150   0.61281   0.54808   0.113215  
         H         H         0.00789   0.59161   0.55786   0.105080  
         H         H         0.96802   0.55493   0.55614   0.118316  
         H         H         0.01143   0.51245   0.40549   0.107846  
         H         H         0.05130   0.54865   0.40034   0.104976  
         H         H         0.97016   0.48560   0.53267   0.069221  
         H         H         0.91782   0.49100   0.49741   0.109482  
         H         H         0.87077   0.41434   0.48407   0.105537  
         H         H         0.94487   0.44272   0.50826   0.112781  
         H         H         0.88931   0.49565   0.50134   0.109858  
         H         H         0.85389   0.50018   0.49727   0.100914  
         H         H         0.81503   0.46504   0.47430   0.101370  
         H         H         0.84438   0.41916   0.48910   0.101161  
         H         H         0.78153   0.43593   0.49584   0.100340  
         H         H         0.74587   0.36041   0.38411   0.116435  
         H         H         0.82023   0.39186   0.41395   0.104737  
         H         H         0.76681   0.33539   0.34191   0.069560  
         H         H         0.88506   0.38769   0.47067   0.067458  
         H         H         0.75261   0.30322   0.46252   0.110380  
         H         H         0.74965   0.26463   0.48125   0.108759  
         H         H         0.83201   0.29971   0.40171   0.100183  
         H         H         0.83432   0.33856   0.38992   0.115706  
         H         H         0.86865   0.35424   0.59787   0.110618  
         H         H         0.86411   0.31420   0.59928   0.099907  
         H         H         0.95066   0.34409   0.42514   0.104644  
         H         H         0.95438   0.38464   0.43873   0.121027  
         H         H         0.75629   0.23377   0.37900   0.099348  
         H         H         0.75352   0.19506   0.40257   0.117811  
         H         H         0.81962   0.23224   0.53421   0.104012  
         H         H         0.82076   0.27035   0.52904   0.097901  
         H         H         0.86912   0.27981   0.49131   0.104380  
         H         H         0.86721   0.24180   0.52382   0.110624  
         H         H         0.93641   0.28151   0.62179   0.105134  
         H         H         0.93743   0.31884   0.60108   0.108931  
         H         H         0.81986   0.19852   0.47241   0.070517  
         H         H         0.94001   0.25056   0.54079   0.069344  
         H         H         0.75747   0.14314   0.49060   0.111419  
         H         H         0.78365   0.09492   0.51394   0.110528  
         H         H         0.83369   0.17140   0.48677   0.104395  
         H         H         0.88325   0.19280   0.54399   0.103922  
         H         H         0.91465   0.15012   0.58545   0.100519  
         H         H         0.95730   0.22681   0.57879   0.111751  
         H         H         0.84927   0.16451   0.60831   0.104828  
         H         H         0.82138   0.09214   0.39060   0.109283  
         H         H         0.85869   0.08785   0.37257   0.100760  
         H         H         0.89367   0.12243   0.44512   0.104227  
         H         H         0.72968   0.10158   0.50113   0.066968  
         H         H         0.58955   0.90431   0.50672   0.065782  
         H         H         0.63069   0.93152   0.36127   0.105446  
         H         H         0.66987   0.96868   0.35699   0.105248  
         H         H         0.62286   0.00911   0.53685   0.109295  
         H         H         0.58368   0.97150   0.53394   0.120537  
         H         H         0.95442   0.16727   0.60200   0.058800  
         H         H         0.48442   0.55909   0.42881   0.108576  
         H         H         0.48689   0.59849   0.43607   0.104312  
         H         H         0.40121   0.56589   0.58625   0.108621  
         H         H         0.39923   0.52603   0.57178   0.121619  
         H         H         0.48109   0.62909   0.56673   0.102059  
         H         H         0.48657   0.66916   0.54667   0.117658  
         H         H         0.41818   0.63646   0.44177   0.107293  
         H         H         0.41248   0.59693   0.46362   0.104424  
         H         H         0.42469   0.67152   0.45751   0.068268  
         H         H         0.56024   0.36074   0.67558   0.106333  
         H         H         0.59907   0.35786   0.64129   0.101036  
         H         H         0.65374   0.42889   0.40438   0.094769  
         H         H         0.61386   0.43207   0.45018   0.113203  
         H         H         0.63652   0.35238   0.46948   0.104862  
         H         H         0.67592   0.34970   0.43669   0.117457  
         H         H         0.71663   0.42651   0.45940   0.101711  
         H         H         0.67727   0.42925   0.50237   0.097986  
         H         H         0.74027   0.41968   0.50160   0.054508  
         H         H         0.68765   0.99493   0.51957   0.103101  
         H         H         0.72756   0.03155   0.52209   0.114450  
         H         H         0.70186   0.07432   0.42236   0.110603  
         H         H         0.66312   0.03822   0.41091   0.098838  
         C         C         0.20180   0.21555   0.39800   -0.168487           
         C         C         0.17821   0.19565   0.40440   0.066895  
         C         C         0.17350   0.17258   0.42706   -0.140269           
         C         C         0.19166   0.16930   0.44916   0.069129  
         C         C         0.21527   0.18964   0.44258   -0.160415           
         C         C         0.22051   0.21264   0.41720   0.056910  
         C         C         0.15816   0.19952   0.39845   0.076013  
         C         C         0.24431   0.23319   0.42417   0.079173  
         C         C         0.27171   0.27468   0.42009   0.201186  
         C         C         0.11511   0.18663   0.42711   0.201035  
         C         C         0.11711   0.20929   0.42263   -0.165826           
         C         C         0.09553   0.21142   0.43965   -0.123815           
         C         C         0.07095   0.19122   0.46142   0.068725  
         C         C         0.06949   0.16860   0.45884   -0.127719           
         C         C         0.09104   0.16639   0.44216   -0.148713           
         C         C         0.29123   0.27427   0.44737   -0.164468           
         C         C         0.31274   0.29535   0.45376   -0.120311           
         C         C         0.31595   0.31798   0.43433   0.050299  
         C         C         0.29642   0.31821   0.40624   -0.133671           
         C         C         0.27490   0.29714   0.39909   -0.143855           
         C         C         0.04752   0.19385   0.49167   0.055119  
         C         C         0.33890   0.34029   0.44011   0.065142  
         C         C         0.04293   0.21475   0.58351   -0.127406           
         C         C         0.02094   0.21747   0.61214   -0.151664           
         C         C         0.00236   0.19927   0.55117   0.200062  
         C         C         0.00688   0.17833   0.45881   -0.176764           
         C         C         0.02882   0.17567   0.43170   -0.124587           
         C         C         0.36196   0.34032   0.42338   -0.128036           
         C         C         0.38381   0.36160   0.42386   -0.151738           
         C         C         0.38376   0.38398   0.44175   0.193857  
         C         C         0.36069   0.38414   0.45993   -0.166032           
         C         C         0.33898   0.36289   0.45916   -0.120908           
         C         C         0.18574   0.14549   0.48985   0.072387  
         C         C         0.15872   0.12685   0.56731   -0.131696           
         C         C         0.15368   0.10496   0.61198   -0.090717           
         C         C         0.17516   0.10126   0.58330   -0.139399           
         C         C         0.20234   0.11961   0.50687   0.069158  
         C         C         0.20713   0.14127   0.45849   -0.169369           
         C         C         0.22539   0.11712   0.48611   0.074267  
         C         C         0.22571   0.09471   0.46299   -0.161040           
         C         C         0.24690   0.09264   0.45650   0.062517  
         C         C         0.26897   0.11353   0.46556   -0.155103           
         C         C         0.26915   0.13603   0.48682   0.055377  
         C         C         0.24719   0.13750   0.49959   -0.150098           
         C         C         0.24436   0.06864   0.45116   0.073995  
         C         C         0.29165   0.15798   0.49922   0.079159  
         C         C         0.31255   0.19948   0.54977   0.198940  
         C         C         0.25782   0.04176   0.46689   0.193992  
         C         C         0.40747   0.42546   0.47535   0.074447  
         C         C         0.42986   0.44651   0.49491   0.051909  
         C         C         0.45112   0.44457   0.48901   -0.131030           
         C         C         0.47321   0.46487   0.49996   0.071148  
         C         C         0.47309   0.48744   0.52443   -0.162516           
         C         C         0.45219   0.48974   0.52865   0.060410  
         C         C         0.43070   0.46911   0.51164   -0.148530           
         C         C         0.45337   0.51343   0.54378   0.084037  
         C         C         0.49667   0.46219   0.47130   0.069704  
         C         C         0.49193   0.44120   0.52999   -0.171094           
         C         C         0.51369   0.43659   0.48780   0.076418  
         C         C         0.54119   0.45421   0.38760   -0.129763           
         C         C         0.54623   0.47556   0.33367   -0.096431           
         C         C         0.52432   0.47957   0.37321   -0.141487           
         C         C         0.50770   0.41304   0.53424   0.069283  
         C         C         0.48350   0.39298   0.54971   -0.163076           
         C         C         0.47852   0.36977   0.56800   0.050457  
         C         C         0.49792   0.36646   0.57610   -0.154945           
         C         C         0.52161   0.38629   0.56988   0.060203  
         C         C         0.52633   0.40938   0.54796   -0.122151           
         C         C         0.45387   0.34997   0.56663   0.073553  
         C         C         0.54226   0.38266   0.57137   0.082761  
         C         C         0.33256   0.19989   0.57593   -0.173264           
         C         C         0.35388   0.22129   0.57948   -0.121847           
         C         C         0.35673   0.24363   0.55660   0.054487  
         C         C         0.33619   0.24317   0.53630   -0.129300           
         C         C         0.31454   0.22168   0.53428   -0.149356           
         C         C         0.38018   0.26600   0.55581   0.060406  
         C         C         0.40240   0.26520   0.54534   -0.131490           
         C         C         0.42482   0.28590   0.54273   -0.143831           
         C         C         0.42642   0.30871   0.55027   0.201404  
         C         C         0.40449   0.30987   0.55859   -0.161943           
         C         C         0.38208   0.28901   0.56075   -0.119914           
         C         C         0.23714   0.02021   0.44662   -0.172121           
         C         C         0.23527   0.99814   0.45679   -0.127301           
         C         C         0.25376   0.99614   0.48647   0.055041  
         C         C         0.27451   0.01776   0.50477   -0.130766           
         C         C         0.27645   0.03990   0.49520   -0.147770           
         C         C         0.25123   0.97251   0.49838   0.053606  
         C         C         0.22869   0.95109   0.50111   -0.131772           
         C         C         0.22642   0.92884   0.51134   -0.157398           
         C         C         0.24655   0.92670   0.51910   0.200286  
         C         C         0.26933   0.94798   0.51434   -0.172113           
         C         C         0.27143   0.97015   0.50481   -0.121079           
         C         C         0.25683   0.89937   0.56431   0.088929  
         C         C         0.25383   0.87514   0.55626   0.068656  
         C         C         0.23157   0.85507   0.54287   -0.144054           
         C         C         0.22966   0.83184   0.51946   0.063756  
         C         C         0.25108   0.82929   0.50627   -0.165241           
         C         C         0.27273   0.84893   0.52809   0.068672  
         C         C         0.27385   0.87198   0.55546   -0.141761           
         C         C         0.29427   0.84499   0.51257   0.073423  
         C         C         0.20620   0.81067   0.50635   0.063893  
         C         C         0.18822   0.81307   0.47453   -0.135356           
         C         C         0.16606   0.79283   0.46543   -0.082840           
         C         C         0.16168   0.76993   0.48412   -0.145749           
         C         C         0.17933   0.76688   0.51525   0.070524  
         C         C         0.20115   0.78756   0.52780   -0.174811           
         C         C         0.17561   0.74286   0.53266   0.073143  
         C         C         0.15301   0.72180   0.53323   -0.175312           
         C         C         0.15066   0.69894   0.53446   0.051340  
         C         C         0.17104   0.69689   0.53945   -0.160179           
         C         C         0.19318   0.71761   0.54566   0.066045  
         C         C         0.19523   0.74020   0.54138   -0.130516           
         C         C         0.12699   0.67805   0.52853   0.067991  
         C         C         0.21543   0.71612   0.54192   0.077384  
         C         C         0.33341   0.85796   0.53955   0.206136  
         C         C         0.25723   0.73375   0.54307   0.209155  
         C         C         0.25601   0.71305   0.57994   -0.166293           
         C         C         0.27887   0.71337   0.56282   -0.114886           
         C         C         0.30409   0.73419   0.50898   0.065155  
         C         C         0.30483   0.75506   0.47993   -0.127847           
         C         C         0.28189   0.75488   0.49814   -0.158526           
         C         C         0.33449   0.83568   0.50883   -0.171163           
         C         C         0.35672   0.83436   0.48906   -0.115433           
         C         C         0.37868   0.85494   0.50268   0.061333  
         C         C         0.37693   0.87703   0.54030   -0.126613           
         C         C         0.35490   0.87851   0.55838   -0.146413           
         C         C         0.32801   0.73339   0.48765   0.055553  
         C         C         0.40231   0.85363   0.48185   0.061388  
         C         C         0.33087   0.71162   0.43603   -0.121173           
         C         C         0.35179   0.70984   0.43122   -0.143804           
         C         C         0.37150   0.72984   0.47237   0.202979  
         C         C         0.36954   0.75198   0.51640   -0.167453           
         C         C         0.34822   0.75358   0.52384   -0.132393           
         C         C         0.40048   0.83246   0.51610   -0.125754           
         C         C         0.42286   0.83174   0.49957   -0.138559           
         C         C         0.44797   0.85231   0.45332   0.200374  
         C         C         0.45026   0.87345   0.41392   -0.173174           
         C         C         0.42803   0.87396   0.42747   -0.125275           
         C         C         0.48974   0.86868   0.45142   0.072128  
         C         C         0.51165   0.86684   0.44908   0.065354  
         C         C         0.41356   0.74251   0.46022   0.079066  
         C         C         0.43314   0.73750   0.46316   0.063105  
         C         C         0.42948   0.71399   0.45794   -0.136626           
         C         C         0.44846   0.70988   0.46336   0.061927  
         C         C         0.47146   0.72947   0.47233   -0.149074           
         C         C         0.47559   0.75315   0.47798   0.064634  
         C         C         0.45601   0.75666   0.47311   -0.170178           
         C         C         0.50990   0.84431   0.45311   -0.141685           
         C         C         0.52956   0.84198   0.46451   0.069052  
         C         C         0.55152   0.86330   0.47070   -0.172238           
         C         C         0.55374   0.88594   0.46585   0.060975  
         C         C         0.53372   0.88769   0.45438   -0.169005           
         C         C         0.49973   0.77407   0.48577   0.070706  
         C         C         0.52673   0.81803   0.47627   0.061741  
         C         C         0.51912   0.77167   0.50103   -0.135570           
         C         C         0.54181   0.79192   0.50284   -0.080806           
         C         C         0.54575   0.81489   0.49049   -0.137518           
         C         C         0.50416   0.79735   0.47422   -0.175018           
         C         C         0.10156   0.63684   0.50067   0.197607  
         C         C         0.08320   0.63826   0.46630   -0.172625           
         C         C         0.06117   0.61774   0.46028   -0.121870           
         C         C         0.05623   0.59481   0.48893   0.054005  
         C         C         0.07486   0.59351   0.52067   -0.133619           
         C         C         0.09717   0.61398   0.52412   -0.149473           
         C         C         0.03266   0.57315   0.48427   0.059892  
         C         C         0.00885   0.57433   0.52442   -0.125629           
         C         C         0.98622   0.55381   0.52652   -0.145142           
         C         C         0.98602   0.53095   0.49212   0.202089  
         C         C         0.01014   0.52965   0.44494   -0.172286           
         C         C         0.03281   0.55026   0.44128   -0.125370           
         C         C         0.95741   0.48975   0.50951   0.079309  
         C         C         0.93374   0.46910   0.50078   0.054561  
         C         C         0.91411   0.47256   0.49634   -0.150103           
         C         C         0.89087   0.45325   0.49273   0.074565  
         C         C         0.88818   0.43008   0.48948   -0.155174           
         C         C         0.90726   0.42618   0.49523   0.061680  
         C         C         0.93027   0.44589   0.50160   -0.153726           
         C         C         0.86962   0.45677   0.49479   0.069784  
         C         C         0.87184   0.47975   0.49845   -0.121322           
         C         C         0.85176   0.48230   0.49620   -0.089632           
         C         C         0.82952   0.46233   0.48562   -0.139849           
         C         C         0.82675   0.43909   0.48014   0.063403  
         C         C         0.84676   0.43701   0.48878   -0.161462           
         C         C         0.80449   0.41735   0.45635   0.073334  
         C         C         0.78263   0.41876   0.46646   -0.169507           
         C         C         0.76174   0.39853   0.43990   0.067643  
         C         C         0.76231   0.37600   0.40307   -0.134534           
         C         C         0.78332   0.37395   0.39761   0.056981  
         C         C         0.80436   0.39460   0.42150   -0.158088           
         C         C         0.78208   0.35016   0.38027   0.081649  
         C         C         0.90210   0.40144   0.49611   0.079727  
         C         C         0.79415   0.32390   0.42064   0.193958  
         C         C         0.91204   0.37250   0.52011   0.201900  
         C         C         0.77027   0.30255   0.44641   -0.172695           
         C         C         0.76866   0.28061   0.45652   -0.126201           
         C         C         0.79070   0.27873   0.44056   0.057353  
         C         C         0.81437   0.30018   0.41625   -0.129637           
         C         C         0.81592   0.32219   0.40870   -0.146994           
         C         C         0.88674   0.35217   0.56020   -0.172303           
         C         C         0.88427   0.32939   0.55938   -0.112053           
         C         C         0.90685   0.32586   0.51706   0.052856  
         C         C         0.93242   0.34619   0.46712   -0.125710           
         C         C         0.93481   0.36896   0.47264   -0.146865           
         C         C         0.78893   0.25545   0.45160   0.049141  
         C         C         0.90431   0.30257   0.53552   0.051690  
         C         C         0.76985   0.23367   0.41748   -0.128136           
         C         C         0.76838   0.21180   0.42781   -0.158419           
         C         C         0.78648   0.21059   0.46601   0.196135  
         C         C         0.80573   0.23228   0.49903   -0.167576           
         C         C         0.80651   0.25403   0.49443   -0.116560           
         C         C         0.88389   0.28038   0.52074   -0.126515           
         C         C         0.88286   0.25890   0.53696   -0.159166           
         C         C         0.90249   0.25865   0.56382   0.198959  
         C         C         0.92226   0.28082   0.58568   -0.171893           
         C         C         0.92286   0.30208   0.57338   -0.125886           
         C         C         0.80053   0.18400   0.47991   0.076300  
         C         C         0.79565   0.15977   0.49418   0.064171  
         C         C         0.92068   0.23484   0.56097   0.088938  
         C         C         0.91926   0.21190   0.57007   0.063213  
         C         C         0.77212   0.13998   0.49670   -0.151304           
         C         C         0.76831   0.11678   0.50057   0.056329  
         C         C         0.78782   0.11326   0.50600   -0.136168           
         C         C         0.81140   0.13264   0.50415   0.070872  
         C         C         0.81500   0.15593   0.49732   -0.160713           
         C         C         0.89761   0.19070   0.56111   -0.142946           
         C         C         0.89571   0.16812   0.56128   0.065444  
         C         C         0.91588   0.16731   0.57795   -0.163670           
         C         C         0.93796   0.18825   0.58433   0.068497  
         C         C         0.93979   0.21070   0.57773   -0.141910           
         C         C         0.83283   0.12903   0.49834   0.070128  
         C         C         0.87433   0.14640   0.52941   0.067728  
         C         C         0.85198   0.14795   0.54953   -0.164813           
         C         C         0.83553   0.10716   0.43485   -0.133154           
         C         C         0.85691   0.10489   0.42145   -0.093764           
         C         C         0.87651   0.12433   0.46465   -0.146218           
         C         C         0.74418   0.09665   0.49540   0.073096  
         C         C         0.57646   0.90738   0.47922   0.073354  
         C         C         0.60352   0.94874   0.46091   0.202376  
         C         C         0.62842   0.94834   0.40720   -0.175372           
         C         C         0.65060   0.96939   0.40462   -0.125885           
         C         C         0.64908   0.99178   0.45611   0.063980  
         C         C         0.62466   0.99216   0.49976   -0.126923           
         C         C         0.60249   0.97116   0.50058   -0.146591           
         C         C         0.95897   0.18575   0.58860   0.078664  
         C         C         0.44106   0.53967   0.50922   0.200675  
         C         C         0.46587   0.56054   0.46905   -0.181083           
         C         C         0.46717   0.58288   0.47387   -0.122778           
         C         C         0.44399   0.58568   0.51876   0.057595  
         C         C         0.41952   0.56464   0.55340   -0.121813           
         C         C         0.41815   0.54216   0.54651   -0.151942           
         C         C         0.44632   0.60957   0.51664   0.052532  
         C         C         0.46737   0.63050   0.53759   -0.133957           
         C         C         0.47059   0.65311   0.52674   -0.149244           
         C         C         0.45310   0.65608   0.49314   0.195246  
         C         C         0.43187   0.63520   0.47258   -0.172756           
         C         C         0.42853   0.61259   0.48598   -0.127315           
         C         C         0.44321   0.68510   0.46597   0.082112  
         C         C         0.58452   0.39659   0.55891   0.214688  
         C         C         0.58085   0.37556   0.61134   -0.172017           
         C         C         0.60298   0.37390   0.59055   -0.113707           
         C         C         0.62992   0.39290   0.51504   0.052565  
         C         C         0.63328   0.41393   0.46555   -0.123064           
         C         C         0.61112   0.41585   0.48969   -0.157913           
         C         C         0.65339   0.39102   0.49190   0.068297  
         C         C         0.65367   0.36868   0.47299   -0.124892           
         C         C         0.67579   0.36701   0.45220   -0.138384           
         C         C         0.69883   0.38761   0.45001   0.198251  
         C         C         0.69902   0.41008   0.46404   -0.169392           
         C         C         0.67679   0.41164   0.48604   -0.133800           
         C         C         0.73942   0.40146   0.45841   0.075518  
         C         C         0.67221   0.01360   0.46413   0.051985  
         C         C         0.69092   0.01221   0.49441   -0.132341           
         C         C         0.71314   0.03263   0.49862   -0.147191           
         C         C         0.71738   0.05549   0.47674   0.196775  
         C         C         0.69868   0.05707   0.44726   -0.168169           
         C         C         0.67666   0.03656   0.44085   -0.122775           
         N         N         0.24927   0.25482   0.40926   -0.295091           
         N         N         0.13468   0.18228   0.42323   -0.290512           
         N         N         0.29073   0.17867   0.53897   -0.291978           
         N         N         0.26168   0.06505   0.46149   -0.303043           
         N         N         0.40626   0.40414   0.44978   -0.290970           
         N         N         0.44995   0.32792   0.55175   -0.297271           
         N         N         0.24239   0.90334   0.52434   -0.302454           
         N         N         0.31257   0.86175   0.55690   -0.290394           
         N         N         0.23552   0.73519   0.55324   -0.292912           
         N         N         0.39084   0.72545   0.47042   -0.289271           
         N         N         0.46890   0.84994   0.44720   -0.284942           
         N         N         0.12450   0.65637   0.50911   -0.292361           
         N         N         0.96252   0.51138   0.49365   -0.291112           
         N         N         0.79753   0.34696   0.41525   -0.303059           
         N         N         0.91706   0.39630   0.52137   -0.296168           
         N         N         0.78296   0.18756   0.47308   -0.294363           
         N         N         0.90055   0.23627   0.57169   -0.300442           
         N         N         0.74049   0.07474   0.48399   -0.291612           
         N         N         0.58052   0.92855   0.46181   -0.285922           
         N         N         0.98160   0.20362   0.57323   -0.285309           
         N         N         0.43807   0.51653   0.50678   -0.298032           
         N         N         0.45885   0.67989   0.48309   -0.305237           
         N         N         0.56404   0.40040   0.57117   -0.298798           
         N         N         0.71985   0.38390   0.43049   -0.288985 

