
##########################################################################
#               Crystallographic Information Format file
#               Produced by PyCifRW module
#
#  This is a CIF file.  CIF has been adopted by the International
#  Union of Crystallography as the standard for data archiving and
#  transmission.
#
#  For information on this file format, follow the CIF links at
#  http://www.iucr.org
##########################################################################

data_image0

_cell_length_a                          30.1121
_cell_length_b                          42.2755
_cell_length_c                          10.6526
_cell_angle_alpha                       90.7073
_cell_angle_beta                        102.434
_cell_angle_gamma                       89.9932
_symmetry_space_group_name_H-M          'P 1'
_space_group_name_Hall                  'P 1'
loop_
  _atom_site_type_symbol
  _atom_site_label
  _atom_site_fract_x
  _atom_site_fract_y
  _atom_site_fract_z
  _atom_site_charge
         N         N         0.35458   0.10393   0.22443   -0.301182           
         N         N         0.64434   0.10568   0.26682   -0.289510           
         N         N         0.85810   0.60716   0.23594   -0.294067           
         N         N         0.15051   0.60119   0.25558   -0.290735           
         N         N         0.65052   0.89834   0.27729   -0.294443           
         N         N         0.35623   0.89491   0.23156   -0.301863           
         N         N         0.14584   0.39536   0.27441   -0.292473           
         N         N         0.85367   0.39784   0.23139   -0.292391           
         C         C         0.35077   0.12899   0.15432   0.067660  
         C         C         0.64850   0.13046   0.34066   0.068056  
         C         C         0.84726   0.62900   0.15089   0.073900  
         C         C         0.15344   0.62581   0.33021   0.067516  
         C         C         0.66039   0.87586   0.36004   0.075847  
         C         C         0.34590   0.87239   0.14681   0.072558  
         C         C         0.15412   0.37236   0.35513   0.074361  
         C         C         0.84988   0.37329   0.15600   0.070043  
         C         C         0.31869   0.15399   0.16771   0.050987  
         C         C         0.68018   0.15592   0.32901   0.050246  
         C         C         0.81838   0.65539   0.17141   0.049069  
         C         C         0.18479   0.65178   0.32377   0.050317  
         C         C         0.68935   0.84953   0.33927   0.048851  
         C         C         0.31689   0.84613   0.16787   0.050269  
         C         C         0.18380   0.34625   0.33591   0.048936  
         C         C         0.81870   0.34745   0.16762   0.051778  
         C         C         0.13547   0.20918   0.36823   -0.207397           
         C         C         0.86599   0.21143   0.13877   -0.211609           
         C         C         0.63403   0.70919   0.34331   -0.209511           
         C         C         0.36720   0.71053   0.13970   -0.209521           
         C         C         0.86748   0.79010   0.12884   -0.208064           
         C         C         0.13334   0.79226   0.35188   -0.207203           
         C         C         0.36551   0.29082   0.13791   -0.205698           
         C         C         0.63453   0.29291   0.36112   -0.208254           
         C         C         0.18056   0.21342   0.35930   -0.124530           
         C         C         0.82056   0.21538   0.14501   -0.124454           
         C         C         0.67948   0.71216   0.33648   -0.121320           
         C         C         0.32183   0.71484   0.14603   -0.126302           
         C         C         0.82234   0.78747   0.13924   -0.119949           
         C         C         0.17926   0.78806   0.35176   -0.123990           
         C         C         0.32017   0.28738   0.14546   -0.119551           
         C         C         0.68002   0.28943   0.35448   -0.124718           
         C         C         0.19188   0.23049   0.25808   0.042415  
         C         C         0.80837   0.23157   0.24873   0.041346  
         C         C         0.69320   0.73324   0.25084   0.041535  
         C         C         0.30979   0.73056   0.25090   0.046101  
         C         C         0.81014   0.77028   0.23888   0.044469  
         C         C         0.19322   0.76936   0.25718   0.044749  
         C         C         0.30752   0.26894   0.24110   0.042855  
         C         C         0.69273   0.27148   0.25585   0.043508  
         C         C         0.15599   0.24386   0.16807   -0.112232           
         C         C         0.84369   0.24380   0.34523   -0.112613           
         C         C         0.65889   0.75077   0.17069   -0.110139           
         C         C         0.34526   0.74235   0.34792   -0.114548           
         C         C         0.84542   0.75571   0.32721   -0.114673           
         C         C         0.15902   0.75485   0.16356   -0.109967           
         C         C         0.34260   0.25394   0.32851   -0.109227           
         C         C         0.65770   0.25710   0.16448   -0.110448           
         C         C         0.11078   0.23994   0.17662   -0.211181           
         C         C         0.88924   0.23988   0.34014   -0.213357           
         C         C         0.61326   0.74781   0.17613   -0.212978           
         C         C         0.39077   0.73834   0.34220   -0.209543           
         C         C         0.89069   0.75782   0.31642   -0.220108           
         C         C         0.11306   0.75901   0.16251   -0.213160           
         C         C         0.38803   0.25695   0.32101   -0.222258           
         C         C         0.61216   0.26038   0.17042   -0.214043           
         C         C         0.46000   0.03642   0.24085   0.071208  
         C         C         0.54266   0.03663   0.26618   0.072532  
         C         C         0.96153   0.53863   0.23454   0.058809  
         C         C         0.04452   0.53552   0.25336   0.074509  
         C         C         0.54318   0.96368   0.27680   0.053006  
         C         C         0.45922   0.96433   0.24511   0.064755  
         C         C         0.04068   0.46329   0.26824   0.055859  
         C         C         0.95731   0.46626   0.24400   0.069137  
         C         C         0.43355   0.03874   0.33408   -0.130728           
         C         C         0.55577   0.04601   0.15317   -0.136397           
         C         C         0.92203   0.53219   0.28166   -0.123136           
         C         C         0.05876   0.54355   0.14043   -0.135480           
         C         C         0.58344   0.97223   0.23747   -0.122190           
         C         C         0.42986   0.96426   0.33082   -0.131535           
         C         C         0.08317   0.47112   0.23961   -0.121605           
         C         C         0.94048   0.45843   0.35291   -0.135702           
         C         C         0.39789   0.06023   0.32233   -0.149990           
         C         C         0.59046   0.06791   0.15765   -0.156726           
         C         C         0.88813   0.55461   0.27880   -0.158497           
         C         C         0.09528   0.56400   0.14451   -0.157970           
         C         C         0.61893   0.95093   0.24158   -0.158233           
         C         C         0.39485   0.94209   0.31896   -0.146751           
         C         C         0.11743   0.44887   0.24441   -0.163574           
         C         C         0.90469   0.43708   0.34383   -0.153796           
         C         C         0.38817   0.08125   0.21903   0.199118  
         C         C         0.61212   0.08224   0.27476   0.199232  
         C         C         0.89102   0.58466   0.22555   0.200159  
         C         C         0.11757   0.57805   0.26167   0.199638  
         C         C         0.61635   0.91998   0.28698   0.203176  
         C         C         0.38822   0.91849   0.22268   0.194624  
         C         C         0.11200   0.41746   0.28120   0.204835  
         C         C         0.88600   0.42150   0.22672   0.199350  
         C         C         0.41387   0.07868   0.12319   -0.169449           
         C         C         0.60046   0.07208   0.38899   -0.171585           
         C         C         0.92959   0.59128   0.17554   -0.175853           
         C         C         0.10504   0.56878   0.37586   -0.174748           
         C         C         0.57685   0.91136   0.32929   -0.180196           
         C         C         0.41673   0.91904   0.13359   -0.169379           
         C         C         0.07026   0.40930   0.31156   -0.182049           
         C         C         0.90133   0.43036   0.11613   -0.171364           
         C         C         0.44908   0.05694   0.13510   -0.127148           
         C         C         0.56621   0.04949   0.38396   -0.126523           
         C         C         0.96384   0.56901   0.18145   -0.121620           
         C         C         0.06883   0.54785   0.37108   -0.122910           
         C         C         0.54148   0.93271   0.32448   -0.116467           
         C         C         0.45120   0.94141   0.14526   -0.122899           
         C         C         0.03584   0.43152   0.30446   -0.119792           
         C         C         0.93638   0.45245   0.12544   -0.124099           
         C         C         0.09988   0.22216   0.27634   0.270053  
         C         C         0.90102   0.22345   0.23673   0.277215  
         C         C         0.60016   0.72693   0.26332   0.275973  
         C         C         0.40237   0.72219   0.23793   0.271152  
         C         C         0.90240   0.77512   0.21643   0.276582  
         C         C         0.09956   0.77801   0.25654   0.270763  
         C         C         0.40021   0.27554   0.22517   0.276590  
         C         C         0.59987   0.27836   0.26924   0.272905  
         C         C         0.29063   0.15216   0.25746   -0.110872           
         C         C         0.71116   0.15324   0.24750   -0.113027           
         C         C         0.80139   0.65798   0.28423   -0.105879           
         C         C         0.21750   0.65013   0.24743   -0.112147           
         C         C         0.71192   0.84957   0.23658   -0.109432           
         C         C         0.29450   0.84658   0.27109   -0.109514           
         C         C         0.20665   0.34640   0.23378   -0.108853           
         C         C         0.79021   0.34947   0.25621   -0.112577           
         C         C         0.26388   0.17766   0.27782   -0.142573           
         C         C         0.73825   0.17873   0.23004   -0.139497           
         C         C         0.77624   0.68419   0.30570   -0.145911           
         C         C         0.24337   0.67649   0.23298   -0.138826           
         C         C         0.73638   0.82336   0.21105   -0.140246           
         C         C         0.26964   0.82060   0.29556   -0.138277           
         C         C         0.23181   0.32043   0.20955   -0.140082           
         C         C         0.76433   0.32375   0.27768   -0.138478           
         C         C         0.26431   0.20631   0.21141   0.077776  
         C         C         0.73484   0.20840   0.28995   0.075243  
         C         C         0.76719   0.70890   0.21644   0.087372  
         C         C         0.23704   0.70598   0.29053   0.074157  
         C         C         0.73809   0.79559   0.28377   0.083624  
         C         C         0.26696   0.79261   0.22088   0.078858  
         C         C         0.23466   0.29290   0.28419   0.081950  
         C         C         0.76624   0.29440   0.21441   0.075760  
         C         C         0.28990   0.20708   0.11512   -0.136532           
         C         C         0.70602   0.21015   0.37817   -0.134060           
         C         C         0.78376   0.70608   0.10308   -0.139257           
         C         C         0.20655   0.70673   0.37427   -0.135947           
         C         C         0.71643   0.79596   0.38861   -0.137291           
         C         C         0.28811   0.79265   0.11505   -0.138177           
         C         C         0.21328   0.29337   0.38960   -0.138753           
         C         C         0.79245   0.29322   0.11948   -0.136644           
         C         C         0.31678   0.18162   0.09439   -0.127703           
         C         C         0.67911   0.18461   0.39664   -0.129461           
         C         C         0.80887   0.67971   0.08077   -0.123800           
         C         C         0.18110   0.68024   0.39068   -0.130167           
         C         C         0.69282   0.82252   0.41670   -0.129423           
         C         C         0.31233   0.81893   0.08844   -0.129654           
         C         C         0.18839   0.31955   0.41528   -0.126037           
         C         C         0.81807   0.31912   0.09640   -0.127674           
         C         C         0.25934   0.26432   0.25255   -0.025361           
         C         C         0.74107   0.26624   0.24630   -0.023680           
         C         C         0.76192   0.76670   0.25196   -0.030092           
         C         C         0.24190   0.76423   0.25138   -0.022036           
         C         C         0.74166   0.73759   0.24271   -0.026066           
         C         C         0.26144   0.73483   0.26249   -0.029766           
         C         C         0.23974   0.23489   0.24325   -0.026806           
         C         C         0.76011   0.23661   0.25939   -0.027334           
         N         N         0.05313   0.78167   0.25845   -0.635162           
         N         N         0.94716   0.77619   0.19795   -0.634482           
         N         N         0.55407   0.28051   0.27957   -0.636158           
         N         N         0.44552   0.27764   0.21172   -0.632336           
         N         N         0.94670   0.22012   0.22752   -0.638668           
         N         N         0.05443   0.21844   0.28839   -0.635092           
         N         N         0.44815   0.71894   0.22817   -0.633633           
         N         N         0.55478   0.72451   0.27618   -0.632927           
         H         H         0.37254   0.13362   0.08576   0.069833  
         H         H         0.62707   0.13428   0.41119   0.073688  
         H         H         0.85975   0.62912   0.06106   0.071678  
         H         H         0.13040   0.62930   0.39663   0.071212  
         H         H         0.64647   0.87516   0.44749   0.071553  
         H         H         0.35921   0.87097   0.05839   0.070585  
         H         H         0.13880   0.37120   0.44000   0.072038  
         H         H         0.87144   0.36981   0.08565   0.073428  
         H         H         0.12784   0.19645   0.44925   0.118914  
         H         H         0.87428   0.19966   0.05533   0.116606  
         H         H         0.62482   0.69354   0.41403   0.115694  
         H         H         0.37529   0.69868   0.05619   0.118447  
         H         H         0.87560   0.80282   0.04849   0.119878  
         H         H         0.12366   0.80610   0.42855   0.119497  
         H         H         0.37389   0.30462   0.06060   0.119443  
         H         H         0.62614   0.30621   0.44096   0.119862  
         H         H         0.20716   0.20427   0.43596   0.104037  
         H         H         0.79447   0.20666   0.06482   0.103029  
         H         H         0.70445   0.69852   0.40286   0.106826  
         H         H         0.29553   0.70654   0.06556   0.103246  
         H         H         0.79631   0.79791   0.06450   0.104232  
         H         H         0.20427   0.79856   0.43025   0.107003  
         H         H         0.29441   0.29809   0.07087   0.105060  
         H         H         0.70577   0.29975   0.43164   0.105443  
         H         H         0.16370   0.25748   0.08944   0.105074  
         H         H         0.83551   0.25621   0.42735   0.106424  
         H         H         0.66832   0.76713   0.10280   0.103471  
         H         H         0.33715   0.75455   0.43052   0.105096  
         H         H         0.83716   0.74223   0.40547   0.103813  
         H         H         0.16870   0.74016   0.08938   0.104999  
         H         H         0.33397   0.23934   0.40318   0.105466  
         H         H         0.66627   0.24302   0.08694   0.105688  
         H         H         0.08376   0.25045   0.10473   0.117366  
         H         H         0.91567   0.24928   0.41794   0.117757  
         H         H         0.58768   0.76166   0.11209   0.119213  
         H         H         0.41739   0.74744   0.42018   0.114277  
         H         H         0.91701   0.74566   0.38503   0.109175  
         H         H         0.08744   0.74782   0.08724   0.119025  
         H         H         0.41420   0.24455   0.38923   0.110641  
         H         H         0.58596   0.24893   0.09761   0.118026  
         H         H         0.44200   0.02452   0.41985   0.101000  
         H         H         0.53916   0.03560   0.06105   0.100750  
         H         H         0.91829   0.50972   0.32599   0.101937  
         H         H         0.04083   0.53389   0.04817   0.102185  
         H         H         0.58676   0.99558   0.19959   0.105308  
         H         H         0.43572   0.98034   0.41275   0.104003  
         H         H         0.08935   0.49470   0.20883   0.102969  
         H         H         0.95600   0.46879   0.44625   0.102802  
         H         H         0.37796   0.06191   0.39595   0.116766  
         H         H         0.60047   0.07499   0.06996   0.108857  
         H         H         0.85904   0.54936   0.32057   0.120645  
         H         H         0.10583   0.57043   0.05674   0.111982  
         H         H         0.64913   0.95792   0.20796   0.122255  
         H         H         0.37330   0.94181   0.38864   0.118356  
         H         H         0.14917   0.45550   0.21849   0.121573  
         H         H         0.89190   0.43118   0.42865   0.110525  
         H         H         0.40648   0.09372   0.03914   0.110309  
         H         H         0.61813   0.08176   0.48159   0.109815  
         H         H         0.93361   0.61461   0.13723   0.110647  
         H         H         0.12341   0.57808   0.46831   0.112000  
         H         H         0.57324   0.88731   0.36111   0.112351  
         H         H         0.41308   0.90137   0.05708   0.112201  
         H         H         0.06418   0.38494   0.33518   0.111832  
         H         H         0.88619   0.41977   0.02305   0.110643  
         H         H         0.46886   0.05600   0.06108   0.098735  
         H         H         0.55762   0.04193   0.47313   0.103429  
         H         H         0.99363   0.57552   0.14552   0.102484  
         H         H         0.05890   0.54142   0.45983   0.109220  
         H         H         0.51124   0.92491   0.35567   0.107124  
         H         H         0.47402   0.94042   0.07896   0.107041  
         H         H         0.00389   0.42386   0.32564   0.103372  
         H         H         0.94861   0.45841   0.03966   0.107032  
         H         H         0.29142   0.13075   0.31357   0.111896  
         H         H         0.71275   0.13095   0.19647   0.112763  
         H         H         0.80919   0.63937   0.35518   0.106232  
         H         H         0.22139   0.62801   0.19756   0.115492  
         H         H         0.70903   0.87041   0.17653   0.111733  
         H         H         0.29765   0.86763   0.33220   0.112881  
         H         H         0.20347   0.36710   0.17287   0.110960  
         H         H         0.78984   0.37152   0.30966   0.111416  
         H         H         0.24364   0.17560   0.35013   0.106625  
         H         H         0.76151   0.17580   0.16582   0.107465  
         H         H         0.76542   0.68619   0.39622   0.100818  
         H         H         0.26806   0.67436   0.17276   0.106866  
         H         H         0.75280   0.82401   0.13000   0.105613  
         H         H         0.25356   0.82173   0.37730   0.103448  
         H         H         0.24792   0.32116   0.12792   0.103738  
         H         H         0.74356   0.32621   0.34859   0.104767  
         H         H         0.28908   0.22814   0.05723   0.100115  
         H         H         0.70448   0.23202   0.43154   0.100667  
         H         H         0.77751   0.72503   0.03328   0.101616  
         H         H         0.20253   0.72846   0.42592   0.102437  
         H         H         0.71776   0.77488   0.44678   0.102454  
         H         H         0.28561   0.77171   0.05363   0.099555  
         H         H         0.21598   0.27279   0.45100   0.102120  
         H         H         0.79289   0.27155   0.06394   0.099364  
         H         H         0.33684   0.18320   0.02099   0.107764  
         H         H         0.65656   0.18695   0.46357   0.109064  
         H         H         0.82146   0.67796   0.99256   0.105457  
         H         H         0.15769   0.68156   0.45550   0.112315  
         H         H         0.67635   0.82221   0.49819   0.109787  
         H         H         0.32813   0.81830   0.00562   0.109017  
         H         H         0.17194   0.31928   0.49682   0.109154  
         H         H         0.83798   0.31737   0.02248   0.109155  
         H         H         0.45466   0.69798   0.18784   0.286328  
         H         H         0.54655   0.70256   0.30190   0.283531  
         H         H         0.95322   0.19970   0.18363   0.287637  
         H         H         0.04815   0.19671   0.32080   0.286103  
         H         H         0.54604   0.30144   0.31702   0.287846  
         H         H         0.45302   0.29827   0.17278   0.291002  
         H         H         0.04558   0.80348   0.28941   0.288462  
         H         H         0.95429   0.79619   0.15403   0.289148  
         H         H         0.47078   0.72310   0.31255   0.282428  
         H         H         0.53108   0.73275   0.20087   0.286881  
         H         H         0.96984   0.22426   0.31087   0.285157  
         H         H         0.03117   0.22384   0.20712   0.283150  
         H         H         0.53146   0.27481   0.19677   0.284292  
         H         H         0.46921   0.27203   0.29165   0.280848  
         H         H         0.03212   0.77591   0.17290   0.285466  
         H         H         0.97202   0.77083   0.27561   0.281138  
         C         C         0.00063   0.48473   0.25447   -0.034498           
         C         C         0.50174   0.98383   0.26238   -0.042963           
         C         C         0.00146   0.51717   0.24719   -0.032466           
         C         C         0.50148   0.01616   0.25781   -0.022238           
         N         N         0.35201   0.10469   0.72367   -0.303326           
         N         N         0.64511   0.10358   0.76976   -0.298740           
         N         N         0.84838   0.60074   0.74389   -0.288811           
         N         N         0.14283   0.60422   0.76653   -0.292984           
         N         N         0.64594   0.89701   0.77222   -0.288721           
         N         N         0.35310   0.89604   0.72710   -0.299742           
         N         N         0.14567   0.39877   0.76176   -0.291780           
         N         N         0.85051   0.39568   0.72768   -0.297208           
         C         C         0.34600   0.12893   0.64878   0.068105  
         C         C         0.65420   0.12709   0.85020   0.076254  
         C         C         0.84812   0.62572   0.67489   0.065847  
         C         C         0.15188   0.62749   0.84811   0.074638  
         C         C         0.64997   0.87270   0.84610   0.068867  
         C         C         0.35140   0.86985   0.66203   0.068444  
         C         C         0.14964   0.37495   0.83846   0.067710  
         C         C         0.84107   0.37261   0.64527   0.072128  
         C         C         0.31606   0.15483   0.66834   0.049952  
         C         C         0.68337   0.15309   0.82976   0.047344  
         C         C         0.81756   0.65218   0.68084   0.050326  
         C         C         0.18169   0.65337   0.82954   0.049456  
         C         C         0.68169   0.84715   0.83555   0.051989  
         C         C         0.31918   0.84480   0.67204   0.049895  
         C         C         0.18125   0.34910   0.83096   0.050984  
         C         C         0.81151   0.34662   0.66383   0.051659  
         C         C         0.13425   0.20907   0.86654   -0.208218           
         C         C         0.86392   0.21015   0.62817   -0.207079           
         C         C         0.63397   0.71193   0.86059   -0.207734           
         C         C         0.36332   0.70604   0.63572   -0.206528           
         C         C         0.86459   0.78819   0.63284   -0.210656           
         C         C         0.13657   0.78881   0.87503   -0.208532           
         C         C         0.36232   0.28758   0.62578   -0.207719           
         C         C         0.63417   0.28874   0.87372   -0.209834           
         C         C         0.17972   0.21468   0.86439   -0.124970           
         C         C         0.81869   0.21348   0.63709   -0.124789           
         C         C         0.67951   0.71572   0.85572   -0.125443           
         C         C         0.31804   0.71090   0.64124   -0.124014           
         C         C         0.81972   0.78606   0.64645   -0.123098           
         C         C         0.18138   0.78358   0.86508   -0.124310           
         C         C         0.31764   0.28535   0.64101   -0.125737           
         C         C         0.67928   0.28321   0.86716   -0.123650           
         C         C         0.19204   0.23105   0.76292   0.043220  
         C         C         0.80670   0.23042   0.73926   0.043625  
         C         C         0.69231   0.73046   0.75119   0.041285  
         C         C         0.30614   0.72861   0.74156   0.045303  
         C         C         0.80840   0.77071   0.75178   0.037474  
         C         C         0.19165   0.76960   0.75455   0.043762  
         C         C         0.30712   0.27108   0.74965   0.041818  
         C         C         0.69046   0.26870   0.75865   0.044767  
         C         C         0.15679   0.24206   0.66475   -0.112040           
         C         C         0.84227   0.24375   0.83225   -0.115014           
         C         C         0.65744   0.74099   0.65103   -0.113141           
         C         C         0.34165   0.74115   0.83663   -0.114975           
         C         C         0.84425   0.75793   0.84356   -0.112763           
         C         C         0.15510   0.76057   0.65502   -0.117264           
         C         C         0.34348   0.25947   0.84287   -0.116016           
         C         C         0.65434   0.25955   0.65788   -0.119066           
         C         C         0.11123   0.23656   0.66583   -0.209947           
         C         C         0.88765   0.24095   0.82324   -0.211447           
         C         C         0.61168   0.73696   0.65423   -0.210930           
         C         C         0.38709   0.73635   0.83227   -0.212082           
         C         C         0.88930   0.75988   0.83072   -0.214469           
         C         C         0.11014   0.76560   0.66421   -0.211970           
         C         C         0.38834   0.26147   0.82837   -0.215164           
         C         C         0.60911   0.26491   0.66369   -0.209343           
         C         C         0.45602   0.03579   0.74001   0.064999  
         C         C         0.53997   0.03707   0.77497   0.057477  
         C         C         0.95348   0.53436   0.74763   0.069108  
         C         C         0.03664   0.53765   0.76732   0.058124  
         C         C         0.54155   0.96431   0.76768   0.069579  
         C         C         0.45881   0.96338   0.74290   0.069412  
         C         C         0.03981   0.46492   0.75551   0.071085  
         C         C         0.95646   0.46279   0.73380   0.059481  
         C         C         0.42386   0.03482   0.81760   -0.130575           
         C         C         0.57884   0.02930   0.72720   -0.125491           
         C         C         0.93848   0.54274   0.85954   -0.132523           
         C         C         0.07862   0.52900   0.73737   -0.123888           
         C         C         0.55429   0.95361   0.65485   -0.137308           
         C         C         0.43305   0.96135   0.83763   -0.130305           
         C         C         0.05483   0.45615   0.64380   -0.132859           
         C         C         0.91801   0.46931   0.78605   -0.124021           
         C         C         0.38866   0.05682   0.80435   -0.146253           
         C         C         0.61363   0.05110   0.72980   -0.155622           
         C         C         0.90186   0.56311   0.85450   -0.158942           
         C         C         0.11318   0.55082   0.73883   -0.160424           
         C         C         0.58982   0.93236   0.66015   -0.155720           
         C         C         0.39716   0.94001   0.82617   -0.150549           
         C         C         0.09122   0.43551   0.64969   -0.158152           
         C         C         0.88320   0.44737   0.77951   -0.156600           
         C         C         0.38462   0.08143   0.71525   0.195474  
         C         C         0.61155   0.08169   0.78174   0.202076  
         C         C         0.88096   0.57729   0.73793   0.199450  
         C         C         0.10854   0.58262   0.77465   0.204033  
         C         C         0.61274   0.91994   0.77835   0.202184  
         C         C         0.38693   0.91856   0.72230   0.198942  
         C         C         0.11266   0.42194   0.76725   0.198742  
         C         C         0.88439   0.41766   0.71917   0.199198  
         C         C         0.41572   0.08187   0.63323   -0.176441           
         C         C         0.57340   0.08946   0.83272   -0.177073           
         C         C         0.89457   0.56798   0.62455   -0.174595           
         C         C         0.06733   0.59161   0.80705   -0.181059           
         C         C         0.60112   0.93112   0.89215   -0.172467           
         C         C         0.41230   0.92056   0.62580   -0.171941           
         C         C         0.09937   0.43198   0.88034   -0.169609           
         C         C         0.92218   0.41096   0.66514   -0.174717           
         C         C         0.45022   0.05959   0.64567   -0.120760           
         C         C         0.53878   0.06762   0.82971   -0.118405           
         C         C         0.93032   0.54666   0.62996   -0.124286           
         C         C         0.03244   0.56981   0.80245   -0.121815           
         C         C         0.56599   0.95306   0.88612   -0.126583           
         C         C         0.44757   0.94232   0.63715   -0.123399           
         C         C         0.06345   0.45322   0.87393   -0.125067           
         C         C         0.95703   0.43286   0.67290   -0.120719           
         C         C         0.09935   0.21960   0.76630   0.268037  
         C         C         0.89914   0.22404   0.72043   0.274137  
         C         C         0.59931   0.72226   0.75919   0.272559  
         C         C         0.39858   0.71883   0.73103   0.273637  
         C         C         0.90012   0.77478   0.72395   0.275820  
         C         C         0.10025   0.78013   0.77426   0.271511  
         C         C         0.39835   0.27524   0.71834   0.276358  
         C         C         0.59832   0.27980   0.77192   0.270321  
         C         C         0.29002   0.15371   0.76330   -0.108748           
         C         C         0.70680   0.15242   0.72884   -0.110023           
         C         C         0.78165   0.65043   0.74587   -0.114907           
         C         C         0.20380   0.65308   0.72584   -0.108718           
         C         C         0.71397   0.84943   0.75821   -0.116175           
         C         C         0.28790   0.84755   0.75263   -0.112718           
         C         C         0.21346   0.35072   0.75300   -0.113519           
         C         C         0.78552   0.34766   0.75893   -0.110957           
         C         C         0.26452   0.17962   0.78682   -0.137824           
         C         C         0.73204   0.17835   0.70629   -0.137051           
         C         C         0.75612   0.67707   0.76006   -0.134760           
         C         C         0.22905   0.67896   0.70323   -0.139742           
         C         C         0.74025   0.82349   0.73956   -0.136376           
         C         C         0.26085   0.82204   0.76978   -0.137397           
         C         C         0.23983   0.32459   0.73721   -0.137856           
         C         C         0.76077   0.32140   0.78111   -0.138139           
         C         C         0.26504   0.20833   0.72062   0.078378  
         C         C         0.73393   0.20630   0.78089   0.083355  
         C         C         0.76594   0.70704   0.71456   0.076007  
         C         C         0.23247   0.70655   0.78041   0.084752  
         C         C         0.73471   0.79370   0.79345   0.076372  
         C         C         0.26465   0.79241   0.71027   0.076294  
         C         C         0.23435   0.29522   0.79452   0.075003  
         C         C         0.76220   0.29273   0.71299   0.078203  
         C         C         0.28920   0.20867   0.62092   -0.136313           
         C         C         0.71176   0.20638   0.88451   -0.139177           
         C         C         0.79991   0.70788   0.64151   -0.137259           
         C         C         0.21174   0.70628   0.88684   -0.139705           
         C         C         0.70451   0.79234   0.87790   -0.138159           
         C         C         0.29364   0.79060   0.62264   -0.136980           
         C         C         0.20432   0.29457   0.87957   -0.135202           
         C         C         0.78635   0.29239   0.61342   -0.136213           
         C         C         0.31415   0.18255   0.59545   -0.131747           
         C         C         0.68699   0.18025   0.90881   -0.124625           
         C         C         0.82502   0.68114   0.62515   -0.128920           
         C         C         0.18683   0.68014   0.91122   -0.127483           
         C         C         0.67874   0.81844   0.89852   -0.127064           
         C         C         0.32049   0.81613   0.60443   -0.129090           
         C         C         0.17849   0.32088   0.89764   -0.128841           
         C         C         0.81032   0.31888   0.58877   -0.129261           
         C         C         0.25927   0.26653   0.76517   -0.027035           
         C         C         0.73851   0.26401   0.74454   -0.025739           
         C         C         0.76014   0.76543   0.76210   -0.021355           
         C         C         0.23945   0.76426   0.74041   -0.026463           
         C         C         0.74102   0.73565   0.74463   -0.025891           
         C         C         0.25804   0.73463   0.75063   -0.024561           
         C         C         0.24030   0.23678   0.75389   -0.023411           
         C         C         0.75853   0.23485   0.75189   -0.025106           
         N         N         0.05490   0.78430   0.78625   -0.633421           
         N         N         0.94526   0.77742   0.70923   -0.633127           
         N         N         0.55274   0.28416   0.78133   -0.634168           
         N         N         0.44327   0.27763   0.70109   -0.637838           
         N         N         0.94424   0.22210   0.70467   -0.635669           
         N         N         0.05330   0.21441   0.76978   -0.632884           
         N         N         0.44416   0.71564   0.72053   -0.636924           
         N         N         0.55339   0.71875   0.76677   -0.633416           
         H         H         0.36398   0.13213   0.57014   0.068966  
         H         H         0.63943   0.12907   0.93597   0.069490  
         H         H         0.87290   0.62893   0.61372   0.070433  
         H         H         0.13680   0.62910   0.93339   0.070184  
         H         H         0.62772   0.86908   0.91425   0.073690  
         H         H         0.37545   0.86431   0.60045   0.069255  
         H         H         0.12762   0.37213   0.90780   0.072936  
         H         H         0.85588   0.37084   0.55955   0.069266  
         H         H         0.12581   0.19704   0.94816   0.119310  
         H         H         0.87195   0.19757   0.54615   0.115675  
         H         H         0.62524   0.70147   0.94499   0.117909  
         H         H         0.37124   0.69316   0.55427   0.119137  
         H         H         0.87206   0.79962   0.54877   0.117944  
         H         H         0.12980   0.79905   0.96315   0.116072  
         H         H         0.36926   0.29808   0.53923   0.116556  
         H         H         0.62673   0.29978   0.95966   0.116704  
         H         H         0.20578   0.20717   0.94593   0.103644  
         H         H         0.79253   0.20391   0.55920   0.102918  
         H         H         0.70543   0.70785   0.93695   0.101563  
         H         H         0.29179   0.70200   0.56208   0.102882  
         H         H         0.79304   0.79504   0.56960   0.101398  
         H         H         0.20873   0.78987   0.94626   0.099622  
         H         H         0.29058   0.29365   0.56358   0.100246  
         H         H         0.70598   0.28976   0.94972   0.101833  
         H         H         0.16529   0.25498   0.58542   0.105761  
         H         H         0.83419   0.25650   0.91375   0.103942  
         H         H         0.66625   0.75218   0.56820   0.106224  
         H         H         0.33356   0.75489   0.91570   0.105677  
         H         H         0.83676   0.74562   0.92561   0.106417  
         H         H         0.16193   0.74945   0.56861   0.103655  
         H         H         0.33652   0.24834   0.92809   0.103740  
         H         H         0.66175   0.24815   0.57267   0.104588  
         H         H         0.08481   0.24511   0.58709   0.114890  
         H         H         0.91421   0.25178   0.89692   0.116515  
         H         H         0.58553   0.74493   0.57368   0.112821  
         H         H         0.41381   0.74611   0.90837   0.115406  
         H         H         0.91606   0.74945   0.90362   0.116514  
         H         H         0.08251   0.75808   0.58575   0.111222  
         H         H         0.41557   0.25185   0.90216   0.114376  
         H         H         0.58208   0.25766   0.58312   0.109567  
         H         H         0.42724   0.01783   0.89416   0.103465  
         H         H         0.58121   0.00631   0.68288   0.107271  
         H         H         0.95603   0.53340   0.95180   0.101886  
         H         H         0.08405   0.50494   0.70864   0.103371  
         H         H         0.53672   0.96247   0.56184   0.100384  
         H         H         0.44226   0.97583   0.92407   0.102360  
         H         H         0.03800   0.46576   0.55137   0.102316  
         H         H         0.91585   0.49132   0.83737   0.103662  
         H         H         0.36472   0.05608   0.86748   0.119559  
         H         H         0.64260   0.04498   0.68847   0.123319  
         H         H         0.89042   0.56953   0.94144   0.112751  
         H         H         0.14439   0.54344   0.71128   0.121706  
         H         H         0.59949   0.92440   0.57234   0.106650  
         H         H         0.37737   0.93883   0.90007   0.116738  
         H         H         0.10258   0.42875   0.56293   0.111581  
         H         H         0.85472   0.45274   0.82397   0.121919  
         H         H         0.41376   0.10015   0.56131   0.115803  
         H         H         0.57008   0.11322   0.86995   0.111644  
         H         H         0.87760   0.57780   0.53262   0.108882  
         H         H         0.06220   0.61628   0.83049   0.109979  
         H         H         0.61960   0.92272   0.98514   0.110645  
         H         H         0.40430   0.90522   0.54114   0.110575  
         H         H         0.11700   0.42316   0.97341   0.111118  
         H         H         0.92518   0.38794   0.62096   0.110792  
         H         H         0.47442   0.06115   0.58350   0.107213  
         H         H         0.50936   0.07467   0.86717   0.107622  
         H         H         0.94110   0.54022   0.54190   0.106803  
         H         H         0.00086   0.57799   0.82510   0.104265  
         H         H         0.55753   0.96137   0.97519   0.105442  
         H         H         0.46694   0.94293   0.56231   0.098259  
         H         H         0.05348   0.46062   0.96217   0.109248  
         H         H         0.98593   0.42639   0.63228   0.103422  
         H         H         0.29104   0.13234   0.81975   0.112257  
         H         H         0.70420   0.13132   0.66820   0.112254  
         H         H         0.77492   0.62797   0.78706   0.116441  
         H         H         0.20013   0.63240   0.66259   0.110082  
         H         H         0.71720   0.87174   0.71102   0.114137  
         H         H         0.28633   0.86983   0.80370   0.112878  
         H         H         0.21666   0.37274   0.70373   0.114834  
         H         H         0.78572   0.36931   0.81532   0.112898  
         H         H         0.24522   0.17784   0.86150   0.105962  
         H         H         0.74915   0.17730   0.62661   0.105444  
         H         H         0.72874   0.67492   0.81104   0.106774  
         H         H         0.24492   0.67813   0.62116   0.104128  
         H         H         0.76453   0.82617   0.67850   0.106918  
         H         H         0.23741   0.82476   0.83364   0.109315  
         H         H         0.26427   0.32667   0.67627   0.108106  
         H         H         0.74095   0.32274   0.85488   0.108090  
         H         H         0.28871   0.22982   0.56379   0.100569  
         H         H         0.71388   0.22732   0.94559   0.100466  
         H         H         0.80725   0.72979   0.59823   0.102764  
         H         H         0.21503   0.72686   0.95025   0.099815  
         H         H         0.70081   0.77048   0.92692   0.100951  
         H         H         0.29529   0.76875   0.56942   0.100078  
         H         H         0.20103   0.27306   0.93145   0.100422  
         H         H         0.78622   0.27107   0.55541   0.100629  
         H         H         0.33274   0.18364   0.51847   0.104044  
         H         H         0.66991   0.18087   0.98909   0.105777  
         H         H         0.85137   0.68274   0.56964   0.106719  
         H         H         0.17083   0.68044   0.99367   0.107942  
         H         H         0.65534   0.81661   0.96309   0.106965  
         H         H         0.34295   0.81401   0.53712   0.108233  
         H         H         0.15555   0.31955   0.96375   0.109507  
         H         H         0.82883   0.31818   0.51155   0.106901  
         H         H         0.45144   0.69446   0.68364   0.288433  
         H         H         0.54714   0.69792   0.80664   0.285452  
         H         H         0.95115   0.20149   0.66272   0.287156  
         H         H         0.04768   0.19314   0.80726   0.288730  
         H         H         0.54866   0.30104   0.84679   0.292503  
         H         H         0.44499   0.27704   0.60673   0.285350  
         H         H         0.05116   0.80139   0.85124   0.291134  
         H         H         0.94760   0.77876   0.61558   0.283742  
         H         H         0.46736   0.72162   0.80170   0.285585  
         H         H         0.53081   0.72225   0.68220   0.282733  
         H         H         0.96867   0.22753   0.78398   0.284665  
         H         H         0.03192   0.21749   0.68289   0.282241  
         H         H         0.53106   0.28852   0.69608   0.284313  
         H         H         0.46535   0.26182   0.75210   0.287730  
         H         H         0.03292   0.78855   0.70144   0.282773  
         H         H         0.96700   0.76091   0.75653   0.289786  
         C         C         0.99711   0.48374   0.74805   -0.032915           
         C         C         0.49972   0.98420   0.75828   -0.020665           
         C         C         0.99670   0.51620   0.75546   -0.032837           
         C         C         0.49882   0.01656   0.76033   -0.043611 

