
##########################################################################
#               Crystallographic Information Format file
#               Produced by PyCifRW module
#
#  This is a CIF file.  CIF has been adopted by the International
#  Union of Crystallography as the standard for data archiving and
#  transmission.
#
#  For information on this file format, follow the CIF links at
#  http://www.iucr.org
##########################################################################

data_image0

_cell_length_a                          32.0311
_cell_length_b                          40.9028
_cell_length_c                          10.6384
_cell_angle_alpha                       87.487
_cell_angle_beta                        106.585
_cell_angle_gamma                       90.0753
_symmetry_space_group_name_H-M          'P 1'
_space_group_name_Hall                  'P 1'
loop_
  _atom_site_type_symbol
  _atom_site_label
  _atom_site_fract_x
  _atom_site_fract_y
  _atom_site_fract_z
  _atom_site_charge
         N         N         0.35877   0.10391   0.22686   -0.283376           
         N         N         0.63990   0.10664   0.28726   -0.285006           
         N         N         0.85876   0.60437   0.23834   -0.288468           
         N         N         0.14310   0.60190   0.26672   -0.283574           
         N         N         0.64163   0.89438   0.29368   -0.293389           
         N         N         0.35860   0.89463   0.20178   -0.292937           
         N         N         0.14361   0.39530   0.28522   -0.280993           
         N         N         0.85874   0.39614   0.21156   -0.278662           
         C         C         0.35252   0.13073   0.15495   0.065929  
         C         C         0.64676   0.13210   0.35775   0.067367  
         C         C         0.84953   0.63016   0.16025   0.070859  
         C         C         0.14836   0.62750   0.33645   0.066107  
         C         C         0.65114   0.86871   0.37232   0.073400  
         C         C         0.35039   0.87016   0.12566   0.073433  
         C         C         0.14760   0.36754   0.35061   0.070627  
         C         C         0.85237   0.37224   0.13310   0.065881  
         C         C         0.32090   0.15519   0.16728   0.055675  
         C         C         0.67862   0.15654   0.34236   0.056387  
         C         C         0.81910   0.65505   0.17570   0.053225  
         C         C         0.18078   0.65213   0.32941   0.053464  
         C         C         0.67969   0.84321   0.35058   0.054818  
         C         C         0.32187   0.84400   0.14726   0.053328  
         C         C         0.17790   0.34241   0.33623   0.051109  
         C         C         0.82142   0.34655   0.14314   0.055431  
         C         C         0.14727   0.19953   0.36611   -0.084194           
         C         C         0.85449   0.19956   0.15051   -0.087878           
         C         C         0.64289   0.70105   0.35711   -0.083772           
         C         C         0.35672   0.69866   0.14790   -0.086340           
         C         C         0.84674   0.80101   0.13897   -0.085352           
         C         C         0.15064   0.79753   0.33965   -0.083502           
         C         C         0.35028   0.29935   0.14592   -0.086594           
         C         C         0.64962   0.30037   0.33807   -0.089683           
         C         C         0.18928   0.20591   0.35975   -0.150192           
         C         C         0.81218   0.20757   0.14900   -0.150603           
         C         C         0.68569   0.70705   0.35732   -0.148572           
         C         C         0.31463   0.70608   0.15033   -0.147592           
         C         C         0.80547   0.79166   0.14377   -0.149598           
         C         C         0.19311   0.78932   0.34348   -0.150110           
         C         C         0.30823   0.29120   0.14675   -0.148528           
         C         C         0.69166   0.29232   0.33713   -0.146998           
         C         C         0.19623   0.22446   0.25275   0.092423  
         C         C         0.80425   0.22550   0.25021   0.093297  
         C         C         0.69467   0.72549   0.25316   0.093156  
         C         C         0.30724   0.72329   0.25415   0.091700  
         C         C         0.79979   0.77368   0.25382   0.093748  
         C         C         0.20158   0.77191   0.24170   0.092853  
         C         C         0.30083   0.27308   0.25404   0.093302  
         C         C         0.69893   0.27485   0.23371   0.092164  
         C         C         0.15986   0.23575   0.15145   -0.138192           
         C         C         0.83998   0.23474   0.35315   -0.138739           
         C         C         0.65947   0.73680   0.14783   -0.138437           
         C         C         0.34341   0.73254   0.35569   -0.138878           
         C         C         0.83669   0.76558   0.35903   -0.140406           
         C         C         0.16629   0.76350   0.13573   -0.137219           
         C         C         0.33668   0.26415   0.36129   -0.139990           
         C         C         0.66283   0.26599   0.13120   -0.140131           
         C         C         0.11772   0.22862   0.15578   -0.099086           
         C         C         0.88241   0.22612   0.35642   -0.098836           
         C         C         0.61661   0.73007   0.14578   -0.094652           
         C         C         0.38565   0.72468   0.35470   -0.097092           
         C         C         0.87808   0.77539   0.35526   -0.098277           
         C         C         0.12375   0.77223   0.13049   -0.102485           
         C         C         0.37886   0.27277   0.36175   -0.097852           
         C         C         0.62064   0.27448   0.13092   -0.095692           
         C         C         0.46130   0.03768   0.24294   0.070404  
         C         C         0.53998   0.03789   0.27489   0.070407  
         C         C         0.96141   0.53805   0.24018   0.059106  
         C         C         0.04013   0.53664   0.25937   0.070781  
         C         C         0.54075   0.96286   0.27789   0.060320  
         C         C         0.45979   0.96338   0.22506   0.059454  
         C         C         0.03936   0.46171   0.26429   0.054967  
         C         C         0.95993   0.46384   0.23422   0.069009  
         C         C         0.44763   0.04415   0.35373   -0.133563           
         C         C         0.55384   0.04708   0.16454   -0.132739           
         C         C         0.92243   0.52776   0.26704   -0.122223           
         C         C         0.05534   0.54273   0.14926   -0.132672           
         C         C         0.57595   0.97037   0.22767   -0.126765           
         C         C         0.42302   0.96996   0.26789   -0.124904           
         C         C         0.08326   0.47201   0.29074   -0.117837           
         C         C         0.95103   0.44980   0.34664   -0.132574           
         C         C         0.41240   0.06495   0.34283   -0.153823           
         C         C         0.58785   0.06881   0.17435   -0.154612           
         C         C         0.88911   0.54971   0.26464   -0.156432           
         C         C         0.09021   0.56355   0.15531   -0.150348           
         C         C         0.60967   0.94795   0.23930   -0.149047           
         C         C         0.38929   0.94764   0.25363   -0.150254           
         C         C         0.11709   0.45024   0.29691   -0.165187           
         C         C         0.91607   0.42892   0.33573   -0.155109           
         C         C         0.39147   0.08161   0.22292   0.200686  
         C         C         0.60769   0.08382   0.29282   0.201053  
         C         C         0.89214   0.58317   0.23189   0.201914  
         C         C         0.11026   0.57954   0.27154   0.195895  
         C         C         0.60986   0.91693   0.30190   0.197012  
         C         C         0.39039   0.91757   0.19520   0.197863  
         C         C         0.10952   0.41650   0.28440   0.206293  
         C         C         0.89060   0.41965   0.21142   0.197683  
         C         C         0.40475   0.07506   0.11116   -0.169579           
         C         C         0.59407   0.07475   0.40414   -0.167928           
         C         C         0.93045   0.59386   0.20387   -0.180692           
         C         C         0.09638   0.57230   0.38404   -0.172283           
         C         C         0.57582   0.90972   0.35789   -0.174458           
         C         C         0.42580   0.91152   0.14533   -0.175039           
         C         C         0.06651   0.40554   0.26216   -0.188072           
         C         C         0.89855   0.43430   0.09834   -0.173226           
         C         C         0.43923   0.05326   0.12198   -0.127804           
         C         C         0.56072   0.05209   0.39441   -0.125943           
         C         C         0.96395   0.57191   0.20846   -0.119288           
         C         C         0.06150   0.55137   0.37717   -0.128161           
         C         C         0.54251   0.93230   0.34675   -0.116984           
         C         C         0.45913   0.93400   0.15906   -0.120434           
         C         C         0.03261   0.42760   0.25094   -0.123124           
         C         C         0.93260   0.45649   0.11035   -0.125298           
         C         C         0.11110   0.21088   0.26422   0.001233  
         C         C         0.89007   0.20879   0.25405   -0.000314           
         C         C         0.60787   0.71269   0.25204   0.001090  
         C         C         0.39270   0.70803   0.24993   0.002081  
         C         C         0.88349   0.79288   0.24464   -0.001044           
         C         C         0.11553   0.78886   0.23369   0.001073  
         C         C         0.38603   0.28999   0.25299   0.000245  
         C         C         0.61369   0.29139   0.23520   0.000582  
         C         C         0.29357   0.14917   0.24835   -0.111253           
         C         C         0.70584   0.15140   0.26168   -0.112363           
         C         C         0.79457   0.65028   0.26559   -0.108310           
         C         C         0.21063   0.64760   0.25674   -0.106609           
         C         C         0.70258   0.84788   0.25636   -0.107030           
         C         C         0.29734   0.84712   0.23689   -0.107734           
         C         C         0.20212   0.34710   0.24556   -0.105996           
         C         C         0.79264   0.35064   0.21959   -0.108482           
         C         C         0.26668   0.17370   0.26907   -0.132958           
         C         C         0.73297   0.17593   0.23765   -0.133514           
         C         C         0.76785   0.67506   0.28504   -0.130903           
         C         C         0.23812   0.67263   0.23997   -0.134594           
         C         C         0.72781   0.82285   0.23146   -0.134360           
         C         C         0.27240   0.82142   0.26312   -0.132283           
         C         C         0.22819   0.32215   0.22431   -0.134197           
         C         C         0.76677   0.32511   0.24199   -0.134814           
         C         C         0.26668   0.20561   0.21265   0.073475  
         C         C         0.73333   0.20720   0.28952   0.074162  
         C         C         0.76575   0.70603   0.21950   0.075501  
         C         C         0.23633   0.70370   0.29153   0.073669  
         C         C         0.73004   0.79171   0.29570   0.074971  
         C         C         0.27204   0.79094   0.20534   0.073762  
         C         C         0.23033   0.29118   0.29002   0.075771  
         C         C         0.76931   0.29378   0.19330   0.074180  
         C         C         0.29190   0.21075   0.12460   -0.140563           
         C         C         0.70840   0.21128   0.37784   -0.139769           
         C         C         0.78870   0.71007   0.12495   -0.138788           
         C         C         0.20881   0.70711   0.37292   -0.140332           
         C         C         0.70837   0.78755   0.39342   -0.139615           
         C         C         0.29522   0.78844   0.11154   -0.137962           
         C         C         0.20783   0.28724   0.38574   -0.140341           
         C         C         0.79608   0.29054   0.10947   -0.141277           
         C         C         0.31859   0.18615   0.10266   -0.130900           
         C         C         0.68159   0.18660   0.40356   -0.130128           
         C         C         0.81470   0.68501   0.10281   -0.129250           
         C         C         0.18159   0.68193   0.39134   -0.131028           
         C         C         0.68384   0.81288   0.42097   -0.128601           
         C         C         0.31942   0.81450   0.08233   -0.128933           
         C         C         0.18200   0.31237   0.40842   -0.126717           
         C         C         0.82139   0.31641   0.08424   -0.128897           
         C         C         0.25604   0.26401   0.25928   -0.028797           
         C         C         0.74392   0.26612   0.22916   -0.030653           
         C         C         0.75538   0.76458   0.26306   -0.026428           
         C         C         0.24681   0.76310   0.24004   -0.027861           
         C         C         0.73999   0.73334   0.24887   -0.029315           
         C         C         0.26224   0.73147   0.25987   -0.030280           
         C         C         0.24095   0.23265   0.24417   -0.028491           
         C         C         0.75919   0.23445   0.25281   -0.030932           
         C         C         0.07021   0.79571   0.23375   0.259175  
         C         C         0.92766   0.80177   0.23815   0.253975  
         C         C         0.56884   0.29831   0.23951   0.257104  
         C         C         0.43096   0.29687   0.24873   0.255224  
         C         C         0.93514   0.20160   0.25200   0.256295  
         C         C         0.06633   0.20570   0.27303   0.256120  
         C         C         0.43763   0.70214   0.24418   0.258976  
         C         C         0.56233   0.70849   0.25608   0.260692  
         O         O         0.56016   0.30786   0.33724   -0.365035           
         O         O         0.43990   0.30683   0.14893   -0.366106           
         O         O         0.06023   0.80357   0.33175   -0.366436           
         O         O         0.93549   0.81269   0.13787   -0.364875           
         O         O         0.44615   0.69351   0.14479   -0.367474           
         O         O         0.55223   0.70122   0.35694   -0.366486           
         O         O         0.94409   0.19183   0.15497   -0.367137           
         O         O         0.05793   0.19647   0.37466   -0.365909           
         H         H         0.37210   0.13724   0.08788   0.074592  
         H         H         0.62781   0.13757   0.42605   0.074978  
         H         H         0.86463   0.63472   0.08034   0.072211  
         H         H         0.12730   0.63290   0.39881   0.070481  
         H         H         0.63776   0.86440   0.45604   0.071547  
         H         H         0.36491   0.86737   0.04453   0.071191  
         H         H         0.12781   0.36159   0.41761   0.074372  
         H         H         0.87143   0.36905   0.06311   0.076226  
         H         H         0.14160   0.18620   0.45043   0.121234  
         H         H         0.86087   0.18643   0.07103   0.122887  
         H         H         0.63574   0.68771   0.43911   0.118919  
         H         H         0.36238   0.68595   0.06640   0.120160  
         H         H         0.85136   0.81445   0.05347   0.123516  
         H         H         0.14375   0.81039   0.41902   0.119373  
         H         H         0.35639   0.31257   0.06202   0.123260  
         H         H         0.64367   0.31330   0.41866   0.123918  
         H         H         0.21693   0.19765   0.44097   0.105274  
         H         H         0.78515   0.20094   0.06622   0.104302  
         H         H         0.71226   0.69861   0.44158   0.106177  
         H         H         0.28717   0.69952   0.06864   0.104351  
         H         H         0.77741   0.79761   0.06007   0.102904  
         H         H         0.21979   0.79539   0.42827   0.105314  
         H         H         0.28101   0.29782   0.06143   0.104157  
         H         H         0.71905   0.29862   0.41957   0.103310  
         H         H         0.16492   0.25009   0.06870   0.107656  
         H         H         0.83421   0.24856   0.43169   0.106964  
         H         H         0.66610   0.75085   0.06671   0.105475  
         H         H         0.33826   0.74581   0.43634   0.107896  
         H         H         0.83276   0.75198   0.44498   0.108890  
         H         H         0.17257   0.75023   0.05660   0.105969  
         H         H         0.33122   0.25063   0.44529   0.107711  
         H         H         0.66802   0.25257   0.05088   0.109136  
         H         H         0.08968   0.23670   0.07529   0.116480  
         H         H         0.90973   0.23255   0.43891   0.114206  
         H         H         0.58976   0.73839   0.06206   0.113372  
         H         H         0.41344   0.73129   0.43546   0.114247  
         H         H         0.90642   0.76989   0.43882   0.112973  
         H         H         0.09673   0.76638   0.04613   0.116635  
         H         H         0.40636   0.26647   0.44684   0.113978  
         H         H         0.59287   0.26835   0.04924   0.113522  
         H         H         0.46424   0.03223   0.44838   0.101243  
         H         H         0.53800   0.03677   0.07036   0.101526  
         H         H         0.91826   0.50240   0.29362   0.105859  
         H         H         0.03987   0.53091   0.05824   0.104032  
         H         H         0.57642   0.99344   0.17409   0.107309  
         H         H         0.42114   0.99221   0.31770   0.106057  
         H         H         0.09145   0.49747   0.30553   0.104710  
         H         H         0.97172   0.45541   0.44351   0.101896  
         H         H         0.40103   0.06937   0.42752   0.111687  
         H         H         0.59925   0.07510   0.08962   0.107994  
         H         H         0.86000   0.54123   0.28875   0.124193  
         H         H         0.10163   0.56842   0.06937   0.113221  
         H         H         0.63581   0.95370   0.19569   0.124115  
         H         H         0.36200   0.95275   0.29185   0.124689  
         H         H         0.15023   0.45901   0.31390   0.125092  
         H         H         0.90887   0.41859   0.42306   0.107581  
         H         H         0.42394   0.11578   0.60608   0.114408  
         H         H         0.57552   0.11452   0.89514   0.113839  
         H         H         0.87916   0.58218   0.52055   0.111122  
         H         H         0.06009   0.62272   0.76119   0.111484  
         H         H         0.61294   0.91547   0.00015   0.108960  
         H         H         0.39365   0.91910   0.49648   0.109137  
         H         H         0.11359   0.41494   0.97141   0.113682  
         H         H         0.93851   0.38265   0.67579   0.110869  
         H         H         0.44921   0.04834   0.03512   0.101781  
         H         H         0.55059   0.04548   0.48131   0.101396  
         H         H         0.99322   0.58131   0.18845   0.106220  
         H         H         0.05062   0.54638   0.46413   0.113139  
         H         H         0.51621   0.92569   0.38839   0.109485  
         H         H         0.48639   0.92803   0.12226   0.108004  
         H         H         -0.00013  0.41807   0.23069   0.108301  
         H         H         0.93874   0.46741   0.02220   0.108393  
         H         H         0.29464   0.12501   0.29626   0.117101  
         H         H         0.70455   0.12790   0.21662   0.115415  
         H         H         0.79732   0.62685   0.32001   0.115317  
         H         H         0.21106   0.62426   0.21180   0.118441  
         H         H         0.69985   0.87151   0.20341   0.115653  
         H         H         0.29862   0.87011   0.28552   0.115984  
         H         H         0.19936   0.37057   0.19132   0.116705  
         H         H         0.79171   0.37416   0.26273   0.117504  
         H         H         0.24630   0.16827   0.33299   0.109872  
         H         H         0.75325   0.17102   0.17434   0.109117  
         H         H         0.74933   0.67063   0.35495   0.108829  
         H         H         0.26053   0.66825   0.18279   0.110102  
         H         H         0.74529   0.82725   0.15884   0.109867  
         H         H         0.25370   0.82485   0.33204   0.109470  
         H         H         0.24618   0.32644   0.15292   0.109964  
         H         H         0.74502   0.32933   0.30140   0.110075  
         H         H         0.29033   0.23433   0.07266   0.097421  
         H         H         0.71014   0.23418   0.42677   0.096769  
         H         H         0.78571   0.73306   0.06795   0.098129  
         H         H         0.20870   0.72982   0.42177   0.099035  
         H         H         0.71130   0.76434   0.44897   0.098301  
         H         H         0.29385   0.76590   0.06038   0.098263  
         H         H         0.21073   0.26422   0.44255   0.098151  
         H         H         0.79710   0.26748   0.06364   0.098108  
         H         H         0.33799   0.19089   0.03491   0.108870  
         H         H         0.66253   0.19064   0.47158   0.108946  
         H         H         0.83201   0.68859   0.02885   0.107936  
         H         H         0.16041   0.68541   0.45371   0.112240  
         H         H         0.66765   0.80926   0.49760   0.107355  
         H         H         0.33684   0.81199   0.00898   0.108610  
         H         H         0.16487   0.30885   0.48284   0.107921  
         H         H         0.84178   0.31311   0.01937   0.109732  
         H         H         0.04499   0.79277   0.13879   0.052779  
         H         H         0.95416   0.79748   0.33102   0.053914  
         H         H         0.54271   0.29377   0.14801   0.050882  
         H         H         0.45695   0.29186   0.34206   0.054795  
         H         H         0.96120   0.20603   0.34376   0.055449  
         H         H         0.03996   0.21131   0.18108   0.052845  
         H         H         0.46400   0.70660   0.33518   0.051272  
         H         H         0.53684   0.71301   0.16133   0.054207  
         C         C         0.00065   0.48322   0.24918   -0.030549           
         C         C         0.50037   0.98338   0.25358   -0.046711           
         C         C         0.00005   0.51691   0.24971   -0.035692           
         C         C         0.50075   0.01674   0.25797   -0.014672           
         N         N         0.35868   0.10636   0.72646   -0.293741           
         N         N         0.64412   0.10598   0.79096   -0.293066           
         N         N         0.85740   0.60395   0.73670   -0.280708           
         N         N         0.14402   0.60596   0.79425   -0.282439           
         N         N         0.64064   0.89519   0.78953   -0.280446           
         N         N         0.36290   0.89494   0.70204   -0.283269           
         N         N         0.14208   0.40001   0.75932   -0.279736           
         N         N         0.85811   0.39622   0.69949   -0.286075           
         C         C         0.34749   0.13160   0.64612   0.073467  
         C         C         0.65413   0.13028   0.86735   0.072319  
         C         C         0.85020   0.63003   0.66030   0.065265  
         C         C         0.14854   0.63289   0.85573   0.070736  
         C         C         0.64600   0.86826   0.86053   0.065527  
         C         C         0.35789   0.86964   0.63095   0.067659  
         C         C         0.14617   0.37276   0.82832   0.063117  
         C         C         0.85220   0.37104   0.62725   0.068684  
         C         C         0.31805   0.15668   0.66669   0.053943  
         C         C         0.68373   0.15543   0.84445   0.054619  
         C         C         0.81894   0.65494   0.67163   0.057263  
         C         C         0.17988   0.65739   0.83869   0.050744  
         C         C         0.67680   0.84321   0.84677   0.055304  
         C         C         0.32663   0.84455   0.64423   0.056313  
         C         C         0.17742   0.34737   0.82198   0.054120  
         C         C         0.82183   0.34560   0.64213   0.053533  
         C         C         0.14707   0.20158   0.86739   -0.086938           
         C         C         0.85735   0.20106   0.65019   -0.085709           
         C         C         0.64683   0.69884   0.86793   -0.083459           
         C         C         0.35681   0.69811   0.65254   -0.085624           
         C         C         0.84964   0.79967   0.65276   -0.085491           
         C         C         0.15214   0.79940   0.83898   -0.085193           
         C         C         0.35227   0.29847   0.64916   -0.085917           
         C         C         0.64915   0.29894   0.83388   -0.084148           
         C         C         0.18908   0.20874   0.86309   -0.149609           
         C         C         0.81475   0.20848   0.64750   -0.150158           
         C         C         0.68863   0.70650   0.86313   -0.148951           
         C         C         0.31463   0.70650   0.65095   -0.148932           
         C         C         0.80741   0.79217   0.65406   -0.147243           
         C         C         0.19453   0.79231   0.83849   -0.148979           
         C         C         0.30983   0.29192   0.65088   -0.147845           
         C         C         0.69147   0.29149   0.83408   -0.148363           
         C         C         0.19610   0.22672   0.75498   0.093775  
         C         C         0.80608   0.22616   0.74819   0.094733  
         C         C         0.69525   0.72435   0.75415   0.094115  
         C         C         0.30703   0.72477   0.75180   0.092040  
         C         C         0.79979   0.77340   0.75953   0.091836  
         C         C         0.20245   0.77445   0.73709   0.093517  
         C         C         0.30165   0.27421   0.75791   0.091361  
         C         C         0.69940   0.27363   0.73267   0.092711  
         C         C         0.15986   0.23636   0.64999   -0.139899           
         C         C         0.84133   0.23566   0.85227   -0.137175           
         C         C         0.65884   0.73332   0.64884   -0.141388           
         C         C         0.34288   0.73403   0.85441   -0.138610           
         C         C         0.83566   0.76288   0.86402   -0.137228           
         C         C         0.16673   0.76433   0.63607   -0.139006           
         C         C         0.33724   0.26375   0.86348   -0.138261           
         C         C         0.66363   0.26366   0.63139   -0.139845           
         C         C         0.11771   0.22868   0.65302   -0.096817           
         C         C         0.88403   0.22767   0.85656   -0.099452           
         C         C         0.61688   0.72491   0.65177   -0.097334           
         C         C         0.38518   0.72520   0.85735   -0.096390           
         C         C         0.87798   0.77096   0.86423   -0.097140           
         C         C         0.12423   0.77200   0.63482   -0.097903           
         C         C         0.37981   0.27091   0.86337   -0.099030           
         C         C         0.62114   0.27150   0.62996   -0.095797           
         C         C         0.46077   0.03935   0.73393   0.059803  
         C         C         0.54171   0.03921   0.77930   0.057977  
         C         C         0.95984   0.53831   0.74469   0.070094  
         C         C         0.03927   0.54029   0.77371   0.055053  
         C         C         0.54076   0.96445   0.76899   0.069252  
         C         C         0.46202   0.96474   0.72957   0.070188  
         C         C         0.04031   0.46608   0.75528   0.072867  
         C         C         0.96118   0.46399   0.72783   0.060421  
         C         C         0.42673   0.03143   0.78879   -0.124945           
         C         C         0.57754   0.03175   0.73331   -0.123748           
         C         C         0.94953   0.54649   0.85930   -0.134362           
         C         C         0.08313   0.52939   0.80047   -0.118273           
         C         C         0.55371   0.95623   0.65868   -0.132875           
         C         C         0.44756   0.95433   0.83740   -0.133848           
         C         C         0.05501   0.46241   0.64427   -0.134454           
         C         C         0.91950   0.47337   0.73669   -0.122830           
         C         C         0.39267   0.05335   0.78020   -0.149427           
         C         C         0.61160   0.05352   0.74333   -0.151066           
         C         C         0.91430   0.56698   0.85281   -0.153450           
         C         C         0.11708   0.55100   0.80753   -0.165361           
         C         C         0.58809   0.93452   0.67125   -0.154758           
         C         C         0.41352   0.93246   0.82259   -0.153590           
         C         C         0.08968   0.44137   0.64927   -0.148335           
         C         C         0.88609   0.45102   0.72522   -0.158503           
         C         C         0.39093   0.08437   0.71627   0.198492  
         C         C         0.61167   0.08393   0.80020   0.199425  
         C         C         0.88968   0.58133   0.73159   0.199274  
         C         C         0.10972   0.58506   0.79504   0.205529  
         C         C         0.60880   0.91838   0.79258   0.199985  
         C         C         0.39466   0.91840   0.70141   0.202413  
         C         C         0.10990   0.42272   0.76519   0.194050  
         C         C         0.89166   0.41800   0.70069   0.202491  
         C         C         0.42385   0.09202   0.65609   -0.176909           
         C         C         0.57698   0.09110   0.85173   -0.175096           
         C         C         0.89894   0.57240   0.61584   -0.175893           
         C         C         0.06676   0.59652   0.77388   -0.187157           
         C         C         0.59630   0.92661   0.90393   -0.169660           
         C         C         0.40878   0.92875   0.59248   -0.169965           
         C         C         0.09669   0.42763   0.87870   -0.172766           
         C         C         0.93254   0.40823   0.68974   -0.180988           
         C         C         0.45749   0.06991   0.66420   -0.116631           
         C         C         0.54330   0.06909   0.84243   -0.118608           
         C         C         0.93352   0.55093   0.62305   -0.124260           
         C         C         0.03274   0.57472   0.76269   -0.120044           
         C         C         0.56285   0.94955   0.89144   -0.125810           
         C         C         0.44189   0.95177   0.60709   -0.126561           
         C         C         0.06212   0.44885   0.87301   -0.127416           
         C         C         0.96603   0.43056   0.70322   -0.123385           
         C         C         0.11093   0.21177   0.76305   0.001731  
         C         C         0.89244   0.21072   0.75432   0.000082  
         C         C         0.61045   0.70818   0.76272   -0.001144           
         C         C         0.39248   0.70749   0.75546   0.000996  
         C         C         0.88538   0.78908   0.75769   0.000209  
         C         C         0.11658   0.78929   0.73727   -0.000454           
         C         C         0.38768   0.28792   0.75517   -0.001511           
         C         C         0.61355   0.28893   0.73218   0.000558  
         C         C         0.29520   0.15212   0.76112   -0.105956           
         C         C         0.70730   0.15152   0.75276   -0.106383           
         C         C         0.79164   0.64951   0.75315   -0.111289           
         C         C         0.20418   0.65297   0.74932   -0.104532           
         C         C         0.70455   0.84894   0.76675   -0.108839           
         C         C         0.29886   0.84938   0.72343   -0.109991           
         C         C         0.20704   0.35190   0.74734   -0.106031           
         C         C         0.79587   0.34934   0.72739   -0.105140           
         C         C         0.26934   0.17703   0.78435   -0.132812           
         C         C         0.73323   0.17648   0.72581   -0.132841           
         C         C         0.76519   0.67444   0.77305   -0.134492           
         C         C         0.23169   0.67721   0.72591   -0.134513           
         C         C         0.73053   0.82401   0.74420   -0.138100           
         C         C         0.27245   0.82446   0.74776   -0.134765           
         C         C         0.23348   0.32626   0.73323   -0.135107           
         C         C         0.76984   0.32407   0.75076   -0.136090           
         C         C         0.26653   0.20803   0.71845   0.077393  
         C         C         0.73549   0.20680   0.78562   0.076014  
         C         C         0.76564   0.70624   0.71572   0.072320  
         C         C         0.23540   0.70727   0.78818   0.076555  
         C         C         0.72922   0.79184   0.79720   0.073386  
         C         C         0.27325   0.79319   0.69704   0.071638  
         C         C         0.23085   0.29464   0.78971   0.074262  
         C         C         0.76967   0.29353   0.69376   0.076630  
         C         C         0.28795   0.21192   0.62005   -0.139458           
         C         C         0.71339   0.21002   0.88158   -0.137705           
         C         C         0.79088   0.71083   0.62741   -0.140269           
         C         C         0.21280   0.71081   0.88285   -0.138338           
         C         C         0.70347   0.78690   0.88393   -0.139659           
         C         C         0.29897   0.78923   0.61086   -0.137756           
         C         C         0.20331   0.29099   0.87183   -0.139878           
         C         C         0.79376   0.29062   0.60256   -0.138868           
         C         C         0.31296   0.18672   0.59391   -0.129922           
         C         C         0.68810   0.18476   0.91100   -0.130214           
         C         C         0.81700   0.68574   0.60583   -0.131031           
         C         C         0.18543   0.68641   0.90751   -0.126070           
         C         C         0.67786   0.81196   0.90828   -0.129797           
         C         C         0.32517   0.81435   0.58497   -0.130310           
         C         C         0.17718   0.31676   0.88750   -0.129613           
         C         C         0.81925   0.31620   0.57661   -0.127439           
         C         C         0.25635   0.26669   0.76319   -0.030233           
         C         C         0.74459   0.26571   0.72842   -0.029664           
         C         C         0.75483   0.76476   0.76472   -0.030097           
         C         C         0.24745   0.76593   0.73276   -0.030899           
         C         C         0.73988   0.73336   0.74718   -0.028719           
         C         C         0.26218   0.73418   0.75421   -0.028636           
         C         C         0.24091   0.23538   0.74892   -0.027646           
         C         C         0.76073   0.23438   0.74976   -0.028960           
         C         C         0.07146   0.79543   0.74077   0.254086  
         C         C         0.93044   0.79577   0.75386   0.260544  
         C         C         0.56859   0.29538   0.73657   0.259969  
         C         C         0.43283   0.29340   0.75013   0.259189  
         C         C         0.93791   0.20475   0.75348   0.256431  
         C         C         0.06620   0.20638   0.77236   0.259971  
         C         C         0.43745   0.70010   0.75335   0.256912  
         C         C         0.56590   0.70181   0.77216   0.256400  
         O         O         0.55995   0.30505   0.83423   -0.366295           
         O         O         0.44196   0.30206   0.64913   -0.366793           
         O         O         0.06233   0.80516   0.83752   -0.365127           
         O         O         0.93961   0.80660   0.65556   -0.364411           
         O         O         0.44636   0.69017   0.65645   -0.367994           
         O         O         0.55815   0.69321   0.87542   -0.366891           
         O         O         0.94804   0.19661   0.65600   -0.366848           
         O         O         0.05813   0.19801   0.87538   -0.367634           
         H         H         0.36007   0.13595   0.56081   0.071518  
         H         H         0.64049   0.13369   0.94994   0.072278  
         H         H         0.86878   0.63559   0.58956   0.073791  
         H         H         0.12878   0.63855   0.92152   0.075167  
         H         H         0.62623   0.86202   0.92738   0.075476  
         H         H         0.37800   0.86487   0.56520   0.075483  
         H         H         0.12470   0.36655   0.89012   0.069494  
         H         H         0.87017   0.36734   0.55479   0.072390  
         H         H         0.14138   0.18861   0.95237   0.122857  
         H         H         0.86427   0.18818   0.57093   0.122572  
         H         H         0.64144   0.68595   0.95350   0.120128  
         H         H         0.36315   0.68464   0.57378   0.120680  
         H         H         0.85584   0.81346   0.57024   0.120794  
         H         H         0.14570   0.81242   0.91864   0.123065  
         H         H         0.35892   0.31147   0.56564   0.123042  
         H         H         0.64275   0.31220   0.91303   0.120003  
         H         H         0.21660   0.20161   0.94672   0.103832  
         H         H         0.78808   0.20167   0.56397   0.105391  
         H         H         0.71641   0.69976   0.94658   0.102737  
         H         H         0.28748   0.70002   0.56823   0.104232  
         H         H         0.78013   0.79985   0.57057   0.104567  
         H         H         0.22167   0.79949   0.92003   0.104979  
         H         H         0.28273   0.29955   0.56675   0.105360  
         H         H         0.71857   0.29850   0.91597   0.104262  
         H         H         0.16494   0.24992   0.56551   0.107749  
         H         H         0.83494   0.24925   0.93046   0.106877  
         H         H         0.66366   0.74673   0.56366   0.108170  
         H         H         0.33726   0.74806   0.93262   0.107729  
         H         H         0.83007   0.74852   0.94598   0.106879  
         H         H         0.17268   0.75045   0.55797   0.106920  
         H         H         0.33125   0.25022   0.94667   0.106411  
         H         H         0.66946   0.24987   0.55291   0.107256  
         H         H         0.08989   0.23580   0.57016   0.114779  
         H         H         0.91106   0.23453   0.93913   0.115479  
         H         H         0.58905   0.73105   0.56741   0.114986  
         H         H         0.41272   0.73167   0.93912   0.114102  
         H         H         0.90550   0.76336   0.94726   0.111974  
         H         H         0.09680   0.76477   0.55417   0.113491  
         H         H         0.40712   0.26345   0.94731   0.116338  
         H         H         0.59370   0.26434   0.54923   0.113409  
         H         H         0.42740   0.00835   0.84338   0.106795  
         H         H         0.57833   0.00917   0.68449   0.105639  
         H         H         0.96907   0.53648   0.95432   0.101841  
         H         H         0.09115   0.50359   0.81470   0.104017  
         H         H         0.53722   0.96755   0.56274   0.101046  
         H         H         0.46293   0.96380   0.93349   0.101408  
         H         H         0.03903   0.47610   0.55312   0.105512  
         H         H         0.91303   0.49834   0.75547   0.104127  
         H         H         0.36745   0.04713   0.82700   0.124623  
         H         H         0.63824   0.04775   0.70321   0.124356  
         H         H         0.90625   0.57317   0.94162   0.112489  
         H         H         0.15016   0.54177   0.82468   0.124918  
         H         H         0.59894   0.92895   0.58669   0.109094  
         H         H         0.40149   0.92523   0.90522   0.107114  
         H         H         0.10066   0.43825   0.56263   0.113456  
         H         H         0.85474   0.45887   0.73478   0.123242  
         H         H         0.38793   0.08665   0.01599   0.109328  
         H         H         0.60979   0.08507   0.49848   0.109240  
         H         H         0.93452   0.61976   0.18323   0.111185  
         H         H         0.11306   0.58291   0.47692   0.114754  
         H         H         0.57454   0.88591   0.40629   0.113611  
         H         H         0.42824   0.88849   0.10036   0.113503  
         H         H         0.05975   0.37964   0.24902   0.111406  
         H         H         0.87818   0.42832   0.00141   0.113720  
         H         H         0.48275   0.07684   0.61863   0.109314  
         H         H         0.51671   0.07571   0.88120   0.108058  
         H         H         0.94064   0.54435   0.53320   0.106567  
         H         H         0.00005   0.58471   0.74321   0.105176  
         H         H         0.55360   0.95573   0.97830   0.101160  
         H         H         0.45246   0.95949   0.52205   0.100587  
         H         H         0.05165   0.45200   0.96063   0.112042  
         H         H         0.99717   0.42168   0.69647   0.107003  
         H         H         0.29847   0.12871   0.81588   0.114870  
         H         H         0.70439   0.12860   0.70292   0.114842  
         H         H         0.79230   0.62548   0.80187   0.118273  
         H         H         0.20032   0.63028   0.69765   0.113885  
         H         H         0.70464   0.87328   0.72124   0.116176  
         H         H         0.29937   0.87297   0.76728   0.115109  
         H         H         0.20825   0.37574   0.69902   0.119137  
         H         H         0.79721   0.37236   0.77579   0.114416  
         H         H         0.25200   0.17261   0.85733   0.109489  
         H         H         0.75096   0.17274   0.65452   0.109353  
         H         H         0.74470   0.66939   0.83693   0.110718  
         H         H         0.24944   0.67310   0.65502   0.108317  
         H         H         0.75138   0.82940   0.68166   0.114150  
         H         H         0.25177   0.82908   0.81011   0.109601  
         H         H         0.25573   0.33061   0.67433   0.110574  
         H         H         0.75037   0.32779   0.81733   0.110038  
         H         H         0.28447   0.23492   0.56291   0.097534  
         H         H         0.71636   0.23252   0.93376   0.099154  
         H         H         0.78992   0.73434   0.57524   0.098194  
         H         H         0.21677   0.73301   0.93720   0.097151  
         H         H         0.70385   0.76310   0.93333   0.096119  
         H         H         0.29834   0.76617   0.56370   0.097224  
         H         H         0.20234   0.26768   0.92353   0.099172  
         H         H         0.79227   0.26803   0.55159   0.097323  
         H         H         0.32895   0.19028   0.51679   0.106808  
         H         H         0.67137   0.18774   0.98570   0.108874  
         H         H         0.83639   0.69002   0.53778   0.108286  
         H         H         0.16826   0.68975   0.98097   0.109127  
         H         H         0.65830   0.80733   0.97565   0.107469  
         H         H         0.34490   0.81050   0.51867   0.110235  
         H         H         0.15602   0.31317   0.95083   0.107997  
         H         H         0.83755   0.31338   0.50570   0.110334  
         H         H         0.04566   0.79009   0.64944   0.054936  
         H         H         0.95628   0.78988   0.84679   0.049238  
         H         H         0.54235   0.29047   0.64587   0.051367  
         H         H         0.45874   0.28867   0.84393   0.053921  
         H         H         0.96332   0.20870   0.84704   0.054342  
         H         H         0.03949   0.21095   0.68043   0.051415  
         H         H         0.46349   0.70454   0.84508   0.054381  
         H         H         0.53904   0.70576   0.68005   0.055138  
         C         C         -0.00018  0.48543   0.74653   -0.035660           
         C         C         0.50140   0.98582   0.75122   -0.016032           
         C         C         0.00048   0.51899   0.75492   -0.028759           
         C         C         0.50137   0.01918   0.75521   -0.045493 

