data_crystal

_audit_creation_method 'AiiDA-DDEC plugin'

_cell_length_a        43.90168
_cell_length_b        44.11402
_cell_length_c         8.61064

_cell_angle_alpha     89.95824
_cell_angle_beta     90.61433
_cell_angle_gamma     119.96965

_symmetry_space_group_name_Hall 'P 1'
_symmetry_space_group_name_H-M  'P 1'

loop_
_symmetry_equiv_pos_as_xyz
 'x,y,z'

loop_
_atom_site_label
_atom_site_type_symbol
_atom_site_fract_x
_atom_site_fract_y
_atom_site_fract_z
_atom_site_charge
H          H       0.70815   0.31106   0.32897   0.10255
H          H       0.68764   0.39643   0.34499   0.10054
H          H       0.60163   0.29048   0.32068   0.10204
H          H       0.37616   0.64506   0.66649   0.10241
H          H       0.35422   0.72961   0.66740   0.10238
H          H       0.26920   0.62327   0.66408   0.10394
H          H       0.04150   0.97801   0.00773   0.09956
H          H       0.02000   0.06290   0.00380   0.10168
H          H       0.93473   0.95679   0.01384   0.10281
H          H       0.73614   0.41773   0.18094   0.10844
H          H       0.57942   0.31887   0.17781   0.10978
H          H       0.68104   0.26223   0.17030   0.10861
H          H       0.40260   0.75023   0.50368   0.10774
H          H       0.24733   0.65090   0.50458   0.10787
H          H       0.34888   0.59610   0.51110   0.10854
H          H       0.06855   0.08392   0.84736   0.10862
H          H       0.91349   0.98492   0.84635   0.10814
H          H       0.01414   0.92953   0.85357   0.10891
H          H       0.75305   0.35272   0.49946   0.11095
H          H       0.64642   0.39867   0.50386   0.11069
H          H       0.59829   0.24630   0.47875   0.11244
H          H       0.42086   0.68813   0.83471   0.11215
H          H       0.31210   0.73124   0.83227   0.11097
H          H       0.26758   0.57950   0.82890   0.11163
H          H       0.08623   0.01990   0.16940   0.11072
H          H       0.97861   0.06542   0.17266   0.11065
H          H       0.93364   0.91240   0.17731   0.11193
H          H       0.85235   0.44573   0.07700   0.07192
H          H       0.55388   0.40765   0.07634   0.07111
H          H       0.59039   0.14598   0.05922   0.07304
H          H       0.51829   0.77606   0.39594   0.07009
H          H       0.22299   0.74206   0.39784   0.07111
H          H       0.26062   0.48005   0.40241   0.07149
H          H       0.18465   0.10923   0.74668   0.07286
H          H       0.88772   0.07582   0.74554   0.07092
H          H       0.92596   0.81439   0.74084   0.07008
H          H       0.90432   0.45464   0.41927   0.11409
H          H       0.54731   0.45198   0.41538   0.11356
H          H       0.54900   0.09588   0.40130   0.11731
H          H       0.57066   0.78489   0.73557   0.11325
H          H       0.21596   0.78493   0.73897   0.11230
H          H       0.21791   0.42931   0.74162   0.11379
H          H       0.23799   0.12145   0.08711   0.11466
H          H       0.87904   0.11671   0.09058   0.11452
H          H       0.88183   0.76240   0.07547   0.11328
H          H       0.09308   0.58381   0.35607   0.10521
H          H       0.41612   0.50888   0.33739   0.10644
H          H       0.49571   0.90804   0.32739   0.10605
H          H       0.75795   0.91534   0.67658   0.10525
H          H       0.08350   0.84105   0.67014   0.10685
H          H       0.15943   0.24160   0.67464   0.10537
H          H       0.42610   0.25590   0.97803   0.10706
H          H       0.75108   0.17739   0.03180   0.10555
H          H       0.82995   0.57586   0.98153   0.10704
H          H       0.14291   0.58519   0.29431   0.06868
H          H       0.41464   0.55682   0.28375   0.06718
H          H       0.44706   0.85836   0.27690   0.06754
H          H       0.80798   0.91716   0.62790   0.06769
H          H       0.07983   0.88741   0.60694   0.06634
H          H       0.11172   0.19258   0.61988   0.06673
H          H       0.47482   0.25717   0.91958   0.06288
H          H       0.74895   0.22520   0.97129   0.06878
H          H       0.78218   0.52621   0.93029   0.06518
H          H       0.24592   0.64321   0.88044   0.10547
H          H       0.35608   0.60338   0.89327   0.10597
H          H       0.39490   0.75339   0.88886   0.10647
H          H       0.91293   0.97604   0.23751   0.10626
H          H       0.02304   0.93650   0.23979   0.10615
H          H       0.06358   0.08693   0.23795   0.10678
H          H       0.57920   0.31288   0.57289   0.10555
H          H       0.68916   0.27028   0.55347   0.10617
H          H       0.72900   0.42129   0.56641   0.10650
H          H       0.26119   0.59474   0.28243   0.11262
H          H       0.40736   0.66908   0.28885   0.11329
H          H       0.33349   0.73884   0.29478   0.11394
H          H       0.92884   0.92686   0.63561   0.11321
H          H       0.07594   0.00418   0.62812   0.11278
H          H       0.99777   0.07238   0.62803   0.11282
H          H       0.59503   0.25749   0.94583   0.11421
H          H       0.74014   0.33535   0.95061   0.11250
H          H       0.66492   0.40503   0.96521   0.11264
H          H       0.29338   0.69194   0.07618   0.10491
H          H       0.30816   0.60262   0.07625   0.10526
H          H       0.39785   0.70660   0.08829   0.10416
H          H       0.95993   0.02473   0.42705   0.10486
H          H       0.97595   0.93618   0.42962   0.10462
H          H       0.06489   0.04057   0.42329   0.10497
H          H       0.62663   0.35883   0.76395   0.10382
H          H       0.64125   0.26959   0.74310   0.10854
H          H       0.73110   0.37357   0.74632   0.10613
H          H       0.88288   0.48421   0.90709   0.11902
H          H       0.51703   0.40192   0.90111   0.11679
H          H       0.59948   0.11492   0.89134   0.12065
H          H       0.54907   0.81461   0.22420   0.11822
H          H       0.18416   0.73579   0.22360   0.11796
H          H       0.26849   0.44912   0.23336   0.11811
H          H       0.21377   0.14931   0.57568   0.11725
H          H       0.84839   0.06822   0.57431   0.11806
H          H       0.93349   0.78385   0.56729   0.11870
H          H       0.98485   0.53703   0.69845   0.12359
H          H       0.46388   0.45116   0.69017   0.12363
H          H       0.55262   0.01211   0.68977   0.12456
H          H       0.65088   0.86719   0.01442   0.12341
H          H       0.13132   0.78606   0.02001   0.12579
H          H       0.21924   0.34722   0.02132   0.12399
H          H       0.31508   0.20492   0.36274   0.12377
H          H       0.79567   0.11842   0.36898   0.12379
H          H       0.88506   0.68232   0.35215   0.12499
H          H       0.01230   0.53192   0.94311   0.11321
H          H       0.46930   0.48316   0.93481   0.11335
H          H       0.52059   0.98596   0.93433   0.11289
H          H       0.67843   0.86167   0.25857   0.11268
H          H       0.13697   0.81725   0.26861   0.11299
H          H       0.18717   0.32042   0.26511   0.11291
H          H       0.34369   0.20017   0.60432   0.11296
H          H       0.80181   0.15029   0.61504   0.11339
H          H       0.85253   0.65501   0.59421   0.11277
H          H       0.98250   0.45073   0.07933   0.11080
H          H       0.55080   0.53427   0.07359   0.11335
H          H       0.46664   0.01599   0.07306   0.11018
H          H       0.65019   0.78173   0.39102   0.11031
H          H       0.21893   0.86865   0.40668   0.11076
H          H       0.13504   0.35048   0.39612   0.11026
H          H       0.31439   0.11673   0.76092   0.11031
H          H       0.88253   0.20011   0.74192   0.10997
H          H       0.79833   0.68312   0.74145   0.11098
H          H       0.00821   0.41772   0.95666   0.12609
H          H       0.58430   0.59364   0.95968   0.12757
H          H       0.40564   0.98948   0.96787   0.12743
H          H       0.67717   0.74906   0.27733   0.12605
H          H       0.25095   0.92754   0.28602   0.12704
H          H       0.07508   0.32465   0.28029   0.12703
H          H       0.33938   0.08196   0.64943   0.12621
H          H       0.91395   0.25789   0.61205   0.12614
H          H       0.73702   0.65616   0.63947   0.12715
H          H       0.11233   0.50091   0.07390   0.12680
H          H       0.50139   0.61422   0.08156   0.12640
H          H       0.38732   0.88685   0.08644   0.12494
H          H       0.78009   0.83271   0.40919   0.12566
H          H       0.16601   0.94557   0.40099   0.12539
H          H       0.05443   0.22143   0.40397   0.12580
H          H       0.44420   0.16761   0.73712   0.12397
H          H       0.83183   0.27895   0.74199   0.12669
H          H       0.71980   0.55381   0.75602   0.12538
H          H       0.93518   0.42722   0.50413   0.06899
H          H       0.57544   0.50775   0.50468   0.07019
H          H       0.49133   0.06465   0.49032   0.06851
H          H       0.60108   0.75665   0.81822   0.06960
H          H       0.24573   0.84423   0.82491   0.06866
H          H       0.15895   0.39900   0.82391   0.06901
H          H       0.27029   0.09590   0.17543   0.06877
H          H       0.90773   0.17341   0.17901   0.06911
H          H       0.82330   0.73168   0.15750   0.06938
H          H       0.93524   0.45881   0.63277   0.06161
H          H       0.54164   0.47791   0.62968   0.05991
H          H       0.52401   0.06533   0.61702   0.06045
H          H       0.60150   0.78861   0.94590   0.06169
H          H       0.21408   0.81142   0.94824   0.06093
H          H       0.19138   0.39932   0.95077   0.06065
H          H       0.27043   0.12831   0.29906   0.06129
H          H       0.87538   0.14383   0.31000   0.06013
H          H       0.85545   0.73146   0.28423   0.06066
H          H       0.99431   0.44038   0.61591   0.13850
H          H       0.56899   0.55728   0.61095   0.13699
H          H       0.44612   0.00691   0.60333   0.13739
H          H       0.65941   0.76847   0.93322   0.13837
H          H       0.20253   0.85506   0.07788   0.12831
H          H       0.11306   0.34172   0.93838   0.13769
H          H       0.33047   0.11118   0.28560   0.13868
H          H       0.89979   0.22247   0.28246   0.13722
H          H       0.77767   0.67272   0.26791   0.13876
H          H       0.96193   0.42621   0.76333   0.13270
H          H       0.57737   0.53523   0.76458   0.13244
H          H       0.46586   0.03960   0.75041   0.13263
H          H       0.62671   0.75537   0.07917   0.13230
H          H       0.23181   0.88845   0.95024   0.13825
H          H       0.13375   0.37421   0.08596   0.13270
H          H       0.29769   0.09624   0.43149   0.13167
H          H       0.91177   0.20288   0.43438   0.13296
H          H       0.79657   0.70581   0.41431   0.13229
H          H       0.99336   0.47131   0.74535   0.13064
H          H       0.53408   0.52750   0.73192   0.13273
H          H       0.47871   0.00749   0.73009   0.13162
H          H       0.65923   0.80009   0.06103   0.13056
H          H       0.24820   0.86958   0.08720   0.13200
H          H       0.14555   0.34143   0.06264   0.13065
H          H       0.32827   0.14152   0.41494   0.12934
H          H       0.86741   0.19297   0.41316   0.13120
H          H       0.81023   0.67432   0.39781   0.12966
H          H       0.06468   0.61337   0.35896   0.06483
H          H       0.38755   0.45221   0.35697   0.06540
H          H       0.55431   0.93767   0.31476   0.06638
H          H       0.72908   0.94407   0.68226   0.06487
H          H       0.05577   0.78279   0.64850   0.06721
H          H       0.21868   0.27059   0.67504   0.06643
H          H       0.39641   0.28481   0.98663   0.06564
H          H       0.72160   0.12027   0.03579   0.06521
H          H       0.89005   0.60719   0.97900   0.06609
H          H       0.05916   0.59067   0.53692   0.06713
H          H       0.41341   0.46927   0.52945   0.06671
H          H       0.54001   0.94311   0.50013   0.06657
H          H       0.72220   0.91990   0.85661   0.06695
H          H       0.07317   0.79538   0.84061   0.06543
H          H       0.20184   0.27682   0.85214   0.06723
H          H       0.39224   0.26276   0.16536   0.06559
H          H       0.74549   0.13571   0.21408   0.06729
H          H       0.87282   0.61151   0.15870   0.06595
H          H       0.00115   0.58886   0.57574   0.12847
H          H       0.41516   0.41241   0.55560   0.12652
H          H       0.59556   0.00151   0.53206   0.12899
H          H       0.66379   0.91755   0.88991   0.12793
H          H       0.07866   0.74057   0.85802   0.12830
H          H       0.25763   0.33518   0.89044   0.12712
H          H       0.33357   0.25940   0.20921   0.13074
H          H       0.74700   0.07873   0.23435   0.12626
H          H       0.92625   0.67144   0.19810   0.12874
H          H       0.00678   0.61114   0.39736   0.13740
H          H       0.38819   0.39612   0.38663   0.13635
H          H       0.60946   0.99670   0.34520   0.13759
H          H       0.67046   0.94087   0.71390   0.13765
H          H       0.05986   0.72832   0.66887   0.13632
H          H       0.27384   0.32890   0.71251   0.13791
H          H       0.33797   0.28101   0.02987   0.13662
H          H       0.72209   0.06400   0.05918   0.13753
H          H       0.94328   0.66719   0.01865   0.13724
H          H       0.03621   0.63277   0.55582   0.13361
H          H       0.37141   0.40505   0.55722   0.13399
H          H       0.60592   0.96785   0.49765   0.13328
H          H       0.69876   0.96176   0.87569   0.13387
H          H       0.03426   0.72998   0.82463   0.13258
H          H       0.26734   0.30070   0.87224   0.13400
H          H       0.36776   0.30355   0.18576   0.13334
H          H       0.70309   0.07096   0.22743   0.13386
H          H       0.93897   0.63915   0.17610   0.13316
H          H       0.25105   0.76783   0.83216   0.05575
H          H       0.22521   0.48247   0.80607   0.05804
H          H       0.51863   0.74905   0.82937   0.05619
H          H       0.92429   0.10857   0.14730   0.05688
H          H       0.89766   0.81513   0.17580   0.05611
H          H       0.18410   0.07729   0.15334   0.05703
H          H       0.58905   0.43941   0.50038   0.05743
H          H       0.55153   0.15063   0.43727   0.05773
H          H       0.85075   0.40775   0.48027   0.05715
H          H       0.30893   0.81392   0.93740   0.11774
H          H       0.18915   0.49904   0.96306   0.11789
H          H       0.50776   0.69325   0.94753   0.11762
H          H       0.97770   0.14414   0.30916   0.11934
H          H       0.85285   0.82666   0.29251   0.11853
H          H       0.16971   0.02306   0.29579   0.12113
H          H       0.64615   0.48041   0.63029   0.12117
H          H       0.52058   0.16837   0.61865   0.12335
H          H       0.83505   0.35544   0.63714   0.11899
H          H       0.31242   0.80528   0.73912   0.11589
H          H       0.19683   0.51894   0.77824   0.11628
H          H       0.49342   0.68665   0.75082   0.11563
H          H       0.98880   0.13672   0.12141   0.11496
H          H       0.85937   0.83905   0.09451   0.11618
H          H       0.15173   0.01334   0.10486   0.11433
H          H       0.65223   0.47330   0.43325   0.11548
H          H       0.53265   0.19588   0.45338   0.11605
H          H       0.81411   0.34300   0.45280   0.11525
H          H       0.32859   0.78878   0.88767   0.11857
H          H       0.21988   0.54402   0.94469   0.11799
H          H       0.46231   0.67310   0.90322   0.12035
H          H       0.99177   0.11341   0.28359   0.11665
H          H       0.87754   0.87143   0.24360   0.12025
H          H       0.12418   0.00635   0.26671   0.11703
H          H       0.66319   0.45283   0.58449   0.11625
H          H       0.55639   0.21149   0.63086   0.11547
H          H       0.78972   0.34100   0.61977   0.11659
H          H       0.23730   0.72173   0.03221   0.11764
H          H       0.27418   0.49762   0.99233   0.11053
H          H       0.48923   0.76710   0.02318   0.11564
H          H       0.89087   0.06004   0.33240   0.11366
H          H       0.94636   0.84672   0.36974   0.11542
H          H       0.16262   0.10465   0.34629   0.11369
H          H       0.56671   0.39103   0.69387   0.11438
H          H       0.59849   0.15384   0.61317   0.10891
H          H       0.83563   0.44114   0.66527   0.11155
H          H       0.26274   0.76472   0.11123   0.11463
H          H       0.23515   0.48769   0.09392   0.11565
H          H       0.50594   0.74171   0.11135   0.11369
H          H       0.91954   0.09971   0.43286   0.11336
H          H       0.90423   0.82896   0.45657   0.11409
H          H       0.17852   0.07897   0.43737   0.11297
H          H       0.59435   0.43241   0.78371   0.11433
H          H       0.56107   0.14609   0.72237   0.11477
H          H       0.84687   0.41283   0.76663   0.11454
H          H       0.28302   0.73960   0.07011   0.12034
H          H       0.26891   0.53193   0.07152   0.12213
H          H       0.46028   0.72264   0.07169   0.12128
H          H       0.93099   0.06652   0.41573   0.12228
H          H       0.92919   0.87439   0.41766   0.12141
H          H       0.13252   0.06232   0.41854   0.12317
H          H       0.61069   0.40359   0.74807   0.12169
H          H       0.59871   0.18866   0.71885   0.12172
H          H       0.80205   0.40135   0.74588   0.12233
H          H       0.18920   0.63683   0.49001   0.05589
H          H       0.36389   0.55364   0.50227   0.05648
H          H       0.44516   0.80710   0.48203   0.05706
H          H       0.85785   0.97168   0.81367   0.05536
H          H       0.02908   0.88736   0.83723   0.05608
H          H       0.11066   0.13992   0.82237   0.05536
H          H       0.52179   0.30550   0.17421   0.06108
H          H       0.69475   0.21882   0.15526   0.05436
H          H       0.77894   0.47464   0.16653   0.05584
H          H       0.15924   0.66805   0.62275   0.12696
H          H       0.33300   0.49252   0.63719   0.12685
H          H       0.50543   0.83919   0.62564   0.12564
H          H       0.82461   0.99637   0.97003   0.12602
H          H      -0.00039   0.82643   0.97406   0.12581
H          H       0.19007   0.17091   0.80235   0.11879
H          H       0.49400   0.33889   0.31311   0.12639
H          H       0.66340   0.15748   0.29314   0.12729
H          H       0.83992   0.50602   0.30750   0.12630
H          H       0.13938   0.64207   0.45355   0.10386
H          H       0.36132   0.50031   0.47757   0.10480
H          H       0.49929   0.85787   0.45324   0.10466
H          H       0.80598   0.97359   0.79246   0.10415
H          H       0.02672   0.83410   0.80982   0.10486
H          H       0.16971   0.17254   0.97572   0.12597
H          H       0.47172   0.31008   0.15485   0.10550
H          H       0.69121   0.16506   0.13145   0.10401
H          H       0.83271   0.52530   0.13979   0.10613
H          H       0.16251   0.68812   0.44144   0.11746
H          H       0.31524   0.47543   0.45164   0.11811
H          H       0.52415   0.83644   0.44927   0.11800
H          H       0.82638   0.01963   0.79998   0.11935
H          H       0.98052   0.80900   0.79047   0.11819
H          H       0.16427   0.19139   0.80228   0.10414
H          H       0.49402   0.35580   0.12729   0.11741
H          H       0.64513   0.14076   0.10767   0.11779
H          H       0.85774   0.50418   0.12733   0.11682
H          H       0.18099   0.64997   0.21933   0.11571
H          H       0.35094   0.53115   0.23149   0.11382
H          H       0.46881   0.81536   0.21492   0.11509
H          H       0.84783   0.99018   0.55455   0.11805
H          H       0.01358   0.86287   0.56761   0.11492
H          H       0.13589   0.14864   0.56001   0.11573
H          H       0.51058   0.31840   0.90650   0.11245
H          H       0.63432   0.18138   0.92022   0.11111
H          H       0.77100   0.43975   0.93347   0.12943
H          H       0.22600   0.66491   0.25863   0.13040
H          H       0.33681   0.56169   0.26626   0.12993
H          H       0.43829   0.77088   0.25266   0.12988
H          H       0.89283   0.00421   0.58898   0.13012
H          H       0.00123   0.89474   0.60383   0.13137
H          H       0.10622   0.10390   0.59646   0.12979
H          H       0.55553   0.33151   0.93542   0.13087
H          H       0.67884   0.19391   0.88653   0.11743
H          H       0.81626   0.45249   0.93313   0.11209
H          H       0.21057   0.69518   0.25119   0.10952
H          H       0.30566   0.51629   0.25776   0.11286
H          H       0.48398   0.78562   0.25388   0.10909
H          H       0.87759   0.03449   0.60261   0.10901
H          H       0.96895   0.84972   0.60208   0.10986
H          H       0.15212   0.11992   0.60255   0.10959
H          H       0.54203   0.36328   0.93329   0.11013
H          H       0.66703   0.22634   0.92047   0.12944
H          H       0.80299   0.48384   0.89798   0.11462
H          H       0.75533   0.47238   0.44838   0.05764
H          H       0.52809   0.29062   0.45137   0.05821
H          H       0.71101   0.24069   0.43844   0.05606
H          H       0.42223   0.80440   0.76986   0.05598
H          H       0.19424   0.62191   0.76435   0.05413
H          H       0.37928   0.57551   0.77346   0.05539
H          H       0.09194   0.13826   0.11827   0.05804
H          H       0.86122   0.95247   0.11572   0.05752
H          H       0.04676   0.90898   0.11884   0.05959
H          H       0.72713   0.51187   0.46366   0.12470
H          H       0.48870   0.22370   0.44190   0.12380
H          H       0.77863   0.26954   0.43686   0.12160
H          H       0.39367   0.84363   0.77978   0.12449
H          H       0.15845   0.55556   0.74332   0.12084
H          H       0.44709   0.60466   0.77661   0.12397
H          H       0.06374   0.17786   0.11897   0.12261
H          H       0.82462   0.88462   0.11479   0.12245
H          H       0.11479   0.93585   0.13066   0.12401
H          H       0.76764   0.52824   0.36533   0.11469
H          H       0.47116   0.24883   0.36004   0.11137
H          H       0.75412   0.22712   0.35338   0.10812
H          H       0.43470   0.86053   0.68508   0.11431
H          H       0.13665   0.57796   0.67626   0.10891
H          H       0.42272   0.56290   0.68648   0.11052
H          H       0.10552   0.19439   0.03163   0.11191
H          H       0.80575   0.90762   0.02377   0.11131
H          H       0.08922   0.89500   0.03486   0.11186
H          H       0.76663   0.54354   0.55417   0.11795
H          H       0.45672   0.22878   0.54329   0.11836
H          H       0.77382   0.23285   0.54034   0.11966
H          H       0.43258   0.87534   0.87396   0.11934
H          H       0.12573   0.55636   0.85834   0.12029
H          H       0.44179   0.56706   0.87361   0.11969
H          H       0.10203   0.20932   0.21797   0.11820
H          H       0.79143   0.88875   0.20964   0.11965
H          H       0.10661   0.89681   0.22319   0.11701
H          H       0.80653   0.52278   0.69427   0.10589
H          H       0.47690   0.28770   0.69743   0.10536
H          H       0.71508   0.19367   0.69051   0.11109
H          H       0.47295   0.85610   0.01381   0.10877
H          H       0.14157   0.61501   0.01227   0.11160
H          H       0.38202   0.52819   0.02718   0.10815
H          H       0.13999   0.18810   0.37366   0.10858
H          H       0.80938   0.94725   0.36395   0.10939
H          H       0.04760   0.85992   0.36858   0.10639
H          H       0.81669   0.52061   0.49808   0.11815
H          H       0.48047   0.30361   0.50628   0.11821
H          H       0.69961   0.18044   0.49806   0.11635
H          H       0.48345   0.85288   0.81927   0.11710
H          H       0.14335   0.63047   0.82124   0.11593
H          H       0.36914   0.51512   0.83235   0.11762
H          H       0.15278   0.18772   0.18037   0.11708
H          H       0.80928   0.96018   0.16975   0.11731
H          H       0.03299   0.84805   0.17450   0.11758
H          H       0.80470   0.48413   0.62155   0.12614
H          H       0.51646   0.32536   0.63804   0.12492
H          H       0.67667   0.19389   0.62347   0.12612
H          H       0.47155   0.81718   0.94735   0.12389
H          H       0.17938   0.65423   0.95099   0.12334
H          H       0.34409   0.52774   0.94886   0.12507
H          H       0.13996   0.15044   0.29932   0.12419
H          H       0.84615   0.98600   0.29238   0.12470
H          H       0.01028   0.86189   0.29911   0.12419
H          H       0.70218   0.50131   0.03460   0.06170
H          H       0.50017   0.18906   0.94831   0.06503
H          H       0.79780   0.29670   0.02478   0.05955
H          H       0.37535   0.83534   0.37232   0.05878
H          H       0.16487   0.54012   0.36081   0.05780
H          H       0.46463   0.62942   0.36026   0.05899
H          H       0.03630   0.16901   0.69273   0.06015
H          H       0.83191   0.86886   0.70045   0.05921
H          H       0.13809   0.96955   0.68097   0.06276
H          H       0.64180   0.47091   0.14256   0.12159
H          H       0.53405   0.16944   0.10511   0.12242
H          H       0.82994   0.35816   0.12030   0.12295
H          H       0.31311   0.81259   0.44557   0.12074
H          H       0.18897   0.50098   0.42665   0.12301
H          H       0.50105   0.69115   0.44440   0.12054
H          H       0.97449   0.14112   0.78130   0.12269
H          H       0.85888   0.83421   0.78958   0.12093
H          H       0.16419   0.02790   0.80715   0.12173
H          H       0.63240   0.43150   0.04853   0.11997
H          H       0.57283   0.21039   0.09258   0.11651
H          H       0.79944   0.36720   0.02544   0.11955
H          H       0.30028   0.77290   0.34476   0.12021
H          H       0.22703   0.52779   0.31618   0.12070
H          H       0.47197   0.70236   0.35016   0.11951
H          H       0.96470   0.10129   0.68949   0.11957
H          H       0.89906   0.86364   0.69991   0.11996
H          H       0.13066   0.03466   0.72968   0.11840
H          H       0.64023   0.46846   0.93624   0.11709
H          H       0.55502   0.18412   0.92287   0.11514
H          H       0.82708   0.35720   0.91377   0.11738
H          H       0.31682   0.81262   0.23990   0.12000
H          H       0.18533   0.50438   0.22215   0.11758
H          H       0.49665   0.68854   0.23831   0.11867
H          H       0.97610   0.13896   0.57543   0.11674
H          H       0.86095   0.83796   0.58358   0.11847
H          H       0.16062   0.03149   0.60284   0.11662
H          H       0.72718   0.47110   0.19438   0.11052
H          H       0.50071   0.23369   0.13076   0.10845
H          H       0.74379   0.27549   0.18820   0.11115
H          H       0.38726   0.79485   0.53605   0.11109
H          H       0.20623   0.59133   0.52746   0.11338
H          H       0.41214   0.61287   0.52781   0.11251
H          H       0.05610   0.13516   0.86414   0.11225
H          H       0.86689   0.92199   0.87001   0.11199
H          H       0.08453   0.93792   0.84481   0.10986
H          H       0.68485   0.43314   0.20099   0.11763
H          H       0.54172   0.24167   0.20831   0.12250
H          H       0.74971   0.31838   0.18702   0.11973
H          H       0.34169   0.76318   0.52651   0.11986
H          H       0.23875   0.57885   0.50845   0.11992
H          H       0.42142   0.65697   0.52377   0.11939
H          H       0.01190   0.10025   0.86887   0.12000
H          H       0.90242   0.91347   0.86962   0.11808
H          H       0.08372   0.97742   0.87155   0.12048
H          H       0.69244   0.47202   0.29410   0.12057
H          H       0.50347   0.20005   0.23165   0.12196
H          H       0.78109   0.31061   0.28072   0.11984
H          H       0.35573   0.80363   0.61978   0.11999
H          H       0.19933   0.55112   0.60496   0.11814
H          H       0.45139   0.64674   0.61402   0.11952
H          H       0.02302   0.14121   0.95086   0.11912
H          H       0.86242   0.88350   0.95724   0.11936
H          H       0.11889   0.97328   0.95037   0.11947
C          C       0.68960   0.32057   0.32730  -0.18850
C          C       0.67801   0.36850   0.33607  -0.18739
C          C       0.62973   0.30905   0.32376  -0.18553
C          C       0.35729   0.65418   0.66451  -0.18746
C          C       0.34498   0.70171   0.66451  -0.18797
C          C       0.29722   0.64197   0.66279  -0.18793
C          C       0.02272   0.98725   0.00630  -0.18809
C          C       0.01071   0.03498   0.00433  -0.18645
C          C       0.96276   0.97533   0.00932  -0.18711
C          C       0.70224   0.35665   0.33272   0.08207
C          C       0.64169   0.34504   0.33106   0.08014
C          C       0.65344   0.29650   0.32281   0.08157
C          C       0.36946   0.69018   0.66446   0.08167
C          C       0.30879   0.67786   0.66294   0.08176
C          C       0.32122   0.62981   0.66383   0.08048
C          C       0.03508   0.02328   0.00464   0.08233
C          C       0.97451   0.01127   0.00660   0.08154
C          C       0.98663   0.96300   0.00827   0.08087
C          C       0.74038   0.38171   0.33505   0.06324
C          C       0.61683   0.35833   0.33359   0.06448
C          C       0.64045   0.25855   0.31992   0.06234
C          C       0.40747   0.71543   0.66358   0.06198
C          C       0.28350   0.69059   0.66213   0.06151
C          C       0.30868   0.59197   0.66393   0.06352
C          C       0.07313   0.04838   0.00364   0.06188
C          C       0.94942   0.02426   0.00573   0.06122
C          C       0.97410   0.92516   0.00829   0.06272
C          C       0.75415   0.41246   0.24819  -0.20386
C          C       0.58558   0.34210   0.24619  -0.20543
C          C       0.65758   0.24458   0.23500  -0.20349
C          C       0.42086   0.74550   0.57194  -0.20438
C          C       0.25266   0.67394   0.57222  -0.20463
C          C       0.32574   0.57823   0.57712  -0.20467
C          C       0.08666   0.07887   0.91510  -0.20457
C          C       0.91874   0.00781   0.91501  -0.20415
C          C       0.99110   0.91156   0.91987  -0.20346
C          C       0.79032   0.43632   0.23939  -0.00536
C          C       0.56213   0.35496   0.23954  -0.00413
C          C       0.64516   0.20848   0.22533  -0.00300
C          C       0.45695   0.76936   0.56023  -0.00278
C          C       0.22882   0.68628   0.56150  -0.00333
C          C       0.31380   0.54226   0.56774  -0.00313
C          C       0.12278   0.10278   0.90558  -0.00388
C          C       0.89503   0.02032   0.90352  -0.00473
C          C       0.97922   0.87566   0.90893  -0.00267
C          C       0.81335   0.42827   0.32271   0.09509
C          C       0.57130   0.38604   0.32340   0.09434
C          C       0.61393   0.18588   0.30500   0.09569
C          C       0.48032   0.76194   0.64465   0.09487
C          C       0.23702   0.71707   0.64560   0.09548
C          C       0.28293   0.51937   0.64964   0.09444
C          C       0.14596   0.09520   0.99013   0.09305
C          C       0.90302   0.05087   0.98899   0.09322
C          C       0.94851   0.85260   0.99171   0.09380
C          C       0.79976   0.39885   0.42397   0.01840
C          C       0.60091   0.40078   0.42623   0.02099
C          C       0.59777   0.19962   0.40351   0.01863
C          C       0.46708   0.73362   0.75147   0.02047
C          C       0.26613   0.73209   0.75112   0.01949
C          C       0.26718   0.53302   0.75116   0.01962
C          C       0.13265   0.06598   0.09189   0.01775
C          C       0.93256   0.06635   0.09241   0.01833
C          C       0.93328   0.86612   0.09660   0.02161
C          C       0.76369   0.37567   0.42525  -0.18999
C          C       0.62350   0.38721   0.42691  -0.18948
C          C       0.61079   0.23552   0.40638  -0.19674
C          C       0.43108   0.71031   0.75583  -0.18909
C          C       0.28934   0.71928   0.75435  -0.18874
C          C       0.27980   0.56887   0.75390  -0.19232
C          C       0.09663   0.04265   0.09396  -0.18928
C          C       0.95560   0.05333   0.09632  -0.18965
C          C       0.94564   0.90196   0.09975  -0.18986
C          C       0.86652   0.45437   0.18854   0.08333
C          C       0.54598   0.41387   0.18690   0.08459
C          C       0.58603   0.13242   0.17090   0.08395
C          C       0.53287   0.78571   0.50615   0.08452
C          C       0.21352   0.74667   0.50806   0.08354
C          C       0.25556   0.46618   0.51356   0.08317
C          C       0.19897   0.11990   0.85671   0.08464
C          C       0.87814   0.07978   0.85674   0.08493
C          C       0.92067   0.80005   0.85081   0.08431
C          C       0.90498   0.47148   0.18836   0.02272
C          C       0.52975   0.43590   0.18426   0.02147
C          C       0.56510   0.09410   0.17201   0.02020
C          C       0.57127   0.80187   0.50475   0.02260
C          C       0.19771   0.76916   0.50800   0.02252
C          C       0.23407   0.42790   0.51231   0.02163
C          C       0.23746   0.13753   0.85530   0.02272
C          C       0.86170   0.10167   0.85820   0.02043
C          C       0.89878   0.76181   0.84651   0.02241
C          C       0.92577   0.48947   0.05665   0.03901
C          C       0.51172   0.43891   0.05098   0.03884
C          C       0.56270   0.07287   0.04190   0.04100
C          C       0.59198   0.81961   0.37265   0.03816
C          C       0.17960   0.77274   0.37651   0.03916
C          C       0.23109   0.40686   0.38038   0.03967
C          C       0.25753   0.15571   0.72231   0.03835
C          C       0.84381   0.10534   0.72620   0.03903
C          C       0.89618   0.74120   0.71352   0.03859
C          C       0.96332   0.50395   0.06782   0.03831
C          C       0.49741   0.46196   0.06116   0.03848
C          C       0.54046   0.03551   0.05475   0.03855
C          C       0.62950   0.83399   0.38349   0.03967
C          C       0.16539   0.79583   0.38996   0.03926
C          C       0.20804   0.36955   0.39022   0.03913
C          C       0.29515   0.17108   0.73115   0.03907
C          C       0.82984   0.12865   0.73854   0.04005
C          C       0.87333   0.70383   0.72161   0.03889
C          C       0.97905   0.50021   0.20672  -0.06325
C          C       0.50168   0.48140   0.19957  -0.06178
C          C       0.52129   0.02053   0.19293  -0.06234
C          C       0.64523   0.83012   0.52193  -0.06459
C          C       0.17000   0.81499   0.52975  -0.06477
C          C       0.18843   0.35436   0.52738  -0.06313
C          C       0.31154   0.16777   0.86865  -0.06499
C          C       0.83429   0.14776   0.87832  -0.06390
C          C       0.85365   0.68819   0.85795  -0.06356
C          C       0.95770   0.48251   0.33280   0.20490
C          C       0.52010   0.47823   0.32621   0.20454
C          C       0.52439   0.04220   0.31765   0.20339
C          C       0.62392   0.81207   0.64743   0.20629
C          C       0.18874   0.81149   0.65409   0.20541
C          C       0.19193   0.37590   0.65352   0.20514
C          C       0.29103   0.15005  -0.00337   0.20553
C          C       0.85212   0.14351   0.00454   0.20631
C          C       0.85652   0.70934   0.98452   0.20487
C          C       0.92114   0.46857   0.32251  -0.24629
C          C       0.53342   0.45520   0.31762  -0.24756
C          C       0.54636   0.07864   0.30596  -0.24690
C          C       0.58738   0.79851   0.63810  -0.24729
C          C       0.20186   0.78830   0.64246  -0.24607
C          C       0.21486   0.41223   0.64490  -0.24707
C          C       0.25428   0.13529   0.98875  -0.24702
C          C       0.86528   0.12035   0.99341  -0.24603
C          C       0.87917   0.74573   0.97773  -0.24608
C          C       0.01751   0.51370   0.21718  -0.05126
C          C       0.48774   0.50577   0.20922  -0.05058
C          C       0.49703   0.98222   0.20371  -0.04992
C          C       0.68374   0.84429   0.53445  -0.05002
C          C       0.15591   0.83927   0.54193  -0.04833
C          C       0.16355   0.31612   0.53665  -0.05223
C          C       0.35011   0.18200   0.87443  -0.04763
C          C       0.82084   0.17256   0.88951  -0.05167
C          C       0.82967   0.64977   0.86629  -0.04662
C          C       0.03931   0.54517   0.29472   0.20325
C          C       0.45573   0.49507   0.28211   0.20228
C          C       0.50870   0.96113   0.27251   0.20203
C          C       0.70475   0.87601   0.61184   0.20216
C          C       0.12383   0.82823   0.61500   0.20256
C          C       0.17403   0.29479   0.61241   0.20317
C          C       0.37215   0.21530   0.93601   0.20150
C          C       0.78957   0.16265   0.96785   0.20384
C          C       0.84199   0.62884   0.93119   0.20091
C          C       0.07603   0.55897   0.29818  -0.25799
C          C       0.44164   0.51760   0.28553  -0.25708
C          C       0.48631   0.92456   0.27734  -0.25774
C          C       0.74148   0.89021   0.61988  -0.25691
C          C       0.10892   0.85008   0.61653  -0.25513
C          C       0.15107   0.25833   0.61817  -0.25677
C          C       0.40891   0.22962   0.93319  -0.25660
C          C       0.77567   0.18534   0.97253  -0.25717
C          C       0.81998   0.59221   0.93499  -0.25702
C          C       0.09172   0.54264   0.22100   0.03148
C          C       0.45865   0.55051   0.21640   0.02902
C          C       0.45251   0.90842   0.21291   0.03066
C          C       0.75788   0.87370   0.55032   0.02991
C          C       0.12535   0.88293   0.54653   0.02837
C          C       0.11786   0.24242   0.54775   0.03083
C          C       0.42431   0.21152   0.86906   0.02981
C          C       0.79153   0.21727   0.89506   0.03090
C          C       0.78568   0.57584   0.87576   0.02896
C          C       0.07010   0.50938   0.14688   0.04734
C          C       0.49242   0.56301   0.14697   0.04798
C          C       0.43914   0.92940   0.14656   0.04704
C          C       0.73703   0.84042   0.47496   0.04719
C          C       0.15901   0.89564   0.47521   0.04730
C          C       0.10574   0.26365   0.47309   0.04708
C          C       0.40236   0.17681   0.80830   0.04831
C          C       0.82431   0.22887   0.81767   0.04735
C          C       0.77178   0.59666   0.81247   0.04833
C          C       0.03259   0.49496   0.14802   0.03281
C          C       0.50670   0.53992   0.14461   0.03329
C          C       0.46206   0.96674   0.14324   0.03472
C          C       0.69951   0.82586   0.46888   0.03344
C          C       0.17414   0.87327   0.47523   0.03231
C          C       0.12917   0.30093   0.46979   0.03433
C          C       0.36486   0.16224   0.81339   0.03126
C          C       0.83891   0.20604   0.81759   0.03168
C          C       0.79450   0.63403   0.80828   0.03100
C          C       0.13008   0.56271   0.21364   0.07379
C          C       0.43847   0.56868   0.21192   0.07783
C          C       0.43418   0.87019   0.20944   0.07431
C          C       0.79631   0.89388   0.55151   0.07666
C          C       0.10498   0.90098   0.54459   0.07788
C          C       0.09921   0.20413   0.54785   0.07788
C          C       0.46270   0.23125   0.86286   0.07809
C          C       0.77116   0.23529   0.89009   0.07436
C          C       0.76745   0.53758   0.87469   0.07916
C          C       0.20710   0.57566   0.21710  -0.00075
C          C       0.42673   0.63467   0.22427   0.00042
C          C       0.36752   0.79258   0.22946   0.00026
C          C       0.87472   0.90688   0.56807   0.00089
C          C       0.09536   0.96984   0.56333   0.00347
C          C       0.03233   0.12601   0.56371   0.00022
C          C       0.54100   0.23861   0.88026   0.00464
C          C       0.75854   0.30002   0.88949   0.00082
C          C       0.69854   0.45886   0.90175   0.00421
C          C       0.18471   0.57874   0.10660   0.09144
C          C       0.42305   0.60885   0.11640   0.08726
C          C       0.39234   0.81468   0.11902   0.08696
C          C       0.85219   0.90992   0.45847   0.08646
C          C       0.09081   0.94296   0.45994   0.08653
C          C       0.05832   0.14819   0.45762   0.08810
C          C       0.51833   0.24431   0.78167   0.08935
C          C       0.75455   0.27389   0.78270   0.08848
C          C       0.72428   0.48152   0.79597   0.08729
C          C       0.19853   0.60230   0.98042   0.00787
C          C       0.39831   0.59815   0.99230   0.00355
C          C       0.40164   0.80079   0.99160   0.00216
C          C       0.86572   0.93409   0.33444   0.00274
C          C       0.06543   0.93141   0.33833   0.00112
C          C       0.06921   0.13433   0.33565   0.00313
C          C       0.53173   0.27058   0.66650  -0.00031
C          C       0.73039   0.26389   0.65629   0.00651
C          C       0.73482   0.46822   0.67047   0.00025
C          C       0.23502   0.62398   0.97305  -0.19848
C          C       0.37609   0.61235   0.98476  -0.19925
C          C       0.38704   0.76444   0.98290  -0.19827
C          C       0.90214   0.95646   0.32882  -0.19910
C          C       0.04335   0.94584   0.33009  -0.19940
C          C       0.05474   0.09796   0.32824  -0.19706
C          C       0.56830   0.29242   0.66051  -0.19916
C          C       0.70881   0.27880   0.64633  -0.19917
C          C       0.72050   0.43189   0.65999  -0.19908
C          C       0.25788   0.62134   0.08021   0.05852
C          C       0.37924   0.63810   0.08961   0.05528
C          C       0.36235   0.74189   0.09045   0.05473
C          C       0.92518   0.95398   0.43543   0.05720
C          C       0.04693   0.97214   0.43259   0.05692
C          C       0.02886   0.07531   0.43176   0.05574
C          C       0.59127   0.28821   0.76058   0.05714
C          C       0.71216   0.30472   0.75079   0.05727
C          C       0.69528   0.40882   0.76456   0.05625
C          C       0.24343   0.59661   0.19876  -0.19115
C          C       0.40513   0.64936   0.20624  -0.19148
C          C       0.35247   0.75640   0.21065  -0.18957
C          C       0.91102   0.92863   0.55185  -0.19150
C          C       0.07345   0.98416   0.54666  -0.19070
C          C       0.01764   0.08984   0.54662  -0.18903
C          C       0.57719   0.26087   0.86848  -0.19307
C          C       0.73761   0.31539   0.86882  -0.19066
C          C       0.68422   0.42282   0.88259  -0.19040
C          C       0.29643   0.64468   0.07499   0.08429
C          C       0.35563   0.65291   0.08116   0.08474
C          C       0.34732   0.70355   0.08147   0.08480
C          C       0.96361   0.97780   0.42786   0.08278
C          C       0.02306   0.98669   0.42546   0.08362
C          C       0.01410   0.03698   0.42484   0.08280
C          C       0.62968   0.31166   0.75293   0.08409
C          C       0.68880   0.31988   0.74430   0.08478
C          C       0.68056   0.37056   0.75403   0.08263
C          C       0.31083   0.68107   0.07691  -0.19124
C          C       0.31906   0.63086   0.07669  -0.19007
C          C       0.36949   0.68923   0.08348  -0.19081
C          C       0.97765   0.01416   0.42610  -0.18991
C          C       0.98655   0.96436   0.42734  -0.18983
C          C       0.03656   0.02296   0.42383  -0.19070
C          C       0.64409   0.34802   0.75719  -0.19145
C          C       0.65225   0.29783   0.74572  -0.18920
C          C       0.70272   0.35623   0.74733  -0.19160
C          C       0.91099   0.49416   0.91741  -0.23273
C          C       0.50689   0.41980   0.91129  -0.23083
C          C       0.58176   0.08694   0.90291  -0.23286
C          C       0.57715   0.82434   0.23373  -0.23023
C          C       0.17448   0.75401   0.23551  -0.23169
C          C       0.25033   0.42119   0.24213  -0.23198
C          C       0.24200   0.15992   0.58434  -0.23004
C          C       0.83868   0.08643   0.58576  -0.23165
C          C       0.91550   0.75588   0.57572  -0.23138
C          C       0.93229   0.51142   0.79317   0.13438
C          C       0.48952   0.42409   0.78608   0.13357
C          C       0.57796   0.06507   0.78046   0.13393
C          C       0.59838   0.84141   0.10912   0.13320
C          C       0.15712   0.75884   0.11168   0.13425
C          C       0.24595   0.39973   0.11714   0.13357
C          C       0.26272   0.17767   0.45936   0.13331
C          C       0.82130   0.09111   0.46170   0.13361
C          C       0.91145   0.73468   0.45007   0.13465
C          C       0.96904   0.52482   0.80053  -0.15941
C          C       0.47616   0.44734   0.79287  -0.15956
C          C       0.55565   0.02840   0.79005  -0.15687
C          C       0.63513   0.85479   0.11634  -0.15948
C          C       0.14374   0.78202   0.12172  -0.15666
C          C       0.22286   0.36316   0.12369  -0.15956
C          C       0.29963   0.19213   0.46493  -0.15900
C          C       0.80816   0.11450   0.47067  -0.15834
C          C       0.88853   0.69805   0.45507  -0.16084
C          C       0.98404   0.52141   0.93598  -0.11238
C          C       0.47974   0.46544   0.92846  -0.11188
C          C       0.53767   0.01413   0.92532  -0.11282
C          C       0.65019   0.85138   0.25161  -0.11248
C          C       0.14741   0.79958   0.25916  -0.11372
C          C       0.20477   0.34855   0.25847  -0.11056
C          C       0.31531   0.18902   0.59879  -0.11138
C          C       0.81208   0.13245   0.60707  -0.11293
C          C       0.87027   0.68314   0.58908  -0.11107
C          C       0.01084   0.46167   0.07767  -0.11594
C          C       0.54008   0.55178   0.07559  -0.11698
C          C       0.44919   0.98781   0.07672  -0.11541
C          C       0.67853   0.79269   0.39587  -0.11525
C          C       0.20754   0.88559   0.40571  -0.11372
C          C       0.11731   0.32234   0.39835  -0.11592
C          C       0.34271   0.12772   0.75535  -0.11273
C          C       0.87151   0.21737   0.74198  -0.11540
C          C       0.78110   0.65490   0.74459  -0.11379
C          C       0.02492   0.44317   0.00992  -0.15543
C          C       0.55883   0.58472   0.01218  -0.15715
C          C       0.41538   0.97328   0.01812  -0.15584
C          C       0.69335   0.77450   0.33186  -0.15567
C          C       0.22543   0.91821   0.33871  -0.15697
C          C       0.08409   0.30815   0.33361  -0.15596
C          C       0.35640   0.10830   0.69372  -0.15465
C          C       0.88912   0.24945   0.66998  -0.15553
C          C       0.74710   0.64012   0.68813  -0.15600
C          C       0.06178   0.45759   0.01101   0.14869
C          C       0.54453   0.60715   0.01646   0.14927
C          C       0.39310   0.93661   0.02419   0.15026
C          C       0.73025   0.78932   0.33814   0.14841
C          C       0.21003   0.93968   0.33829   0.15141
C          C       0.06151   0.27152   0.33699   0.14933
C          C       0.39328   0.12316   0.68795   0.15069
C          C       0.87454   0.27165   0.67235   0.14815
C          C       0.72513   0.60341   0.69401   0.14941
C          C       0.08406   0.48990   0.07654  -0.20961
C          C       0.51223   0.59688   0.08156  -0.20783
C          C       0.40442   0.91501   0.08581  -0.20882
C          C       0.75177   0.82138   0.40743  -0.20796
C          C       0.17774   0.92900   0.40416  -0.21041
C          C       0.07177   0.24957   0.40423  -0.20842
C          C       0.41593   0.15644   0.74345  -0.21053
C          C       0.84298   0.26188   0.74359  -0.20890
C          C       0.73684   0.58199   0.75398  -0.20932
C          C       0.95215   0.45134   0.57003   0.08254
C          C       0.55147   0.50255   0.56612   0.08199
C          C       0.49925   0.04817   0.55513   0.08145
C          C       0.61822   0.78076   0.88396   0.08210
C          C       0.22159   0.83637   0.89072   0.08109
C          C       0.16655   0.38229   0.88907   0.08252
C          C       0.28729   0.12061   0.23744   0.08138
C          C       0.88411   0.16801   0.24385   0.08255
C          C       0.83074   0.71467   0.22127   0.08257
C          C       0.97699   0.44712   0.67968  -0.41491
C          C       0.55827   0.53247   0.67411  -0.41354
C          C       0.47080   0.02395   0.66581  -0.41342
C          C       0.64248   0.77599   0.99531  -0.41428
C          C       0.22620   0.86405   0.00792  -0.41192
C          C       0.13801   0.35835  -0.00007  -0.41318
C          C       0.31257   0.11733   0.34822  -0.41120
C          C       0.89105   0.19838   0.34927  -0.41357
C          C       0.80209   0.69031   0.33112  -0.41231
C          C       0.04502   0.59460   0.43960   0.08142
C          C       0.40758   0.45116   0.43117   0.08126
C          C       0.55604   0.95720   0.39918   0.08079
C          C       0.70880   0.92453   0.75837   0.08211
C          C       0.07289   0.78065   0.73700   0.07994
C          C       0.21944   0.29045   0.75476   0.08066
C          C       0.37740   0.26594   0.06911   0.08134
C          C       0.74072   0.11847   0.11325   0.08064
C          C       0.88983   0.62617   0.06119   0.08207
C          C       0.02081   0.60755   0.49546  -0.41169
C          C       0.39496   0.41403   0.48582  -0.41103
C          C       0.59398   0.98234   0.44642  -0.41241
C          C       0.68393   0.93679   0.81285  -0.41235
C          C       0.06070   0.74263   0.77454  -0.41181
C          C       0.25674   0.31533   0.81087  -0.41252
C          C       0.35266   0.27809   0.12698  -0.41104
C          C       0.72750   0.08083   0.16146  -0.41238
C          C       0.92674   0.65253   0.11686  -0.41271
C          C       0.27098   0.76080   0.86364   0.08665
C          C       0.23802   0.50854   0.85971   0.09091
C          C       0.49188   0.73003   0.86507   0.08602
C          C       0.93761   0.09576   0.20138   0.08991
C          C       0.90530   0.84194   0.21022   0.08794
C          C       0.15771   0.06171   0.20148   0.08823
C          C       0.60636   0.42960   0.53956   0.08699
C          C       0.56730   0.17468   0.50521   0.09077
C          C       0.82473   0.39436   0.53344   0.09150
C          C       0.30731   0.79399   0.85601  -0.40501
C          C       0.20962   0.51845   0.88759  -0.41007
C          C       0.48847   0.69364   0.86636  -0.40549
C          C       0.97613   0.12386   0.23012  -0.40995
C          C       0.87202   0.84513   0.20972  -0.40756
C          C       0.15018   0.02393   0.21786  -0.40897
C          C       0.64413   0.46063   0.54686  -0.41002
C          C       0.54304   0.18855   0.55422  -0.41229
C          C       0.81510   0.35628   0.56198  -0.41038
C          C       0.26298   0.74580   0.02907  -0.40801
C          C       0.25506   0.50625   0.01372  -0.40948
C          C       0.48655   0.74101   0.02750  -0.40874
C          C       0.91858   0.07953   0.35480  -0.40873
C          C       0.92224   0.84835   0.37320  -0.40861
C          C       0.15784   0.07789   0.36038  -0.40762
C          C       0.59373   0.41318   0.70082  -0.40588
C          C       0.58229   0.16514   0.64847  -0.41287
C          C       0.82752   0.41361   0.68713  -0.40949
C          C       0.19583   0.66387   0.46275   0.09606
C          C       0.33704   0.53259   0.47308   0.09480
C          C       0.46653   0.80146   0.45984   0.09703
C          C       0.86274   0.99859   0.79993   0.09702
C          C       0.00214   0.86610   0.81118   0.09610
C          C       0.13256   0.13486   0.80505   0.09696
C          C       0.52823   0.33245   0.14660   0.09560
C          C       0.66759   0.19798   0.12945   0.09504
C          C       0.80016   0.46893   0.14199   0.09699
C          C       0.16258   0.66588   0.49793  -0.40804
C          C       0.33631   0.49820   0.51252  -0.40941
C          C       0.50087   0.83545   0.49979  -0.40878
C          C       0.82819   0.99726   0.84387  -0.40947
C          C       0.00194   0.83190   0.84913  -0.40851
C          C       0.16615   0.16917   0.84930  -0.40929
C          C       0.49538   0.33470   0.18847  -0.40940
C          C       0.66648   0.16333   0.16854  -0.40894
C          C       0.83464   0.50277   0.18201  -0.40905
C          C       0.20388   0.66876   0.28816  -0.41672
C          C       0.33228   0.53562   0.29747  -0.41586
C          C       0.46424   0.79279   0.28563  -0.41609
C          C       0.87080   0.00741   0.62692  -0.41549
C          C       0.99613   0.86855   0.63646  -0.41714
C          C       0.13167   0.12631   0.63140  -0.41544
C          C       0.53456   0.33666   0.97067  -0.41589
C          C       0.66160   0.20011   0.95424  -0.41504
C          C       0.79743   0.46073   0.96693  -0.41533
C          C       0.76051   0.49077   0.54481   0.09464
C          C       0.50941   0.27600   0.54420   0.09649
C          C       0.72584   0.23700   0.53322   0.09543
C          C       0.42720   0.82301   0.86508   0.09383
C          C       0.17575   0.60633   0.85612   0.09450
C          C       0.39398   0.57157   0.86809   0.09462
C          C       0.09608   0.15667   0.21320   0.09545
C          C       0.84280   0.93738   0.20855   0.09477
C          C       0.06066   0.90442   0.21505   0.09450
C          C       0.75508   0.52031   0.47932  -0.41250
C          C       0.47978   0.24228   0.46907  -0.41008
C          C       0.76018   0.24200   0.46281  -0.41095
C          C       0.42162   0.85231   0.79792  -0.41250
C          C       0.14750   0.57194   0.77990  -0.40969
C          C       0.42848   0.57692   0.79808  -0.41303
C          C       0.09145   0.18626   0.14230  -0.41137
C          C       0.81452   0.90250   0.13584  -0.41241
C          C       0.09487   0.90835   0.14807  -0.41118
C          C       0.79930   0.50528   0.59318  -0.40742
C          C       0.49510   0.29959   0.60058  -0.40792
C          C       0.70291   0.19909   0.59025  -0.40714
C          C       0.46598   0.83802   0.91497  -0.40632
C          C       0.15916   0.62783   0.91433  -0.40590
C          C       0.37090   0.53349   0.92285  -0.40510
C          C       0.13434   0.17142   0.27059  -0.40808
C          C       0.82608   0.95906   0.26245  -0.40706
C          C       0.03641   0.86644   0.26808  -0.40658
C          C       0.68791   0.47265   0.04039   0.09200
C          C       0.52542   0.20926  -0.00172   0.08914
C          C       0.78394   0.31158   0.02692   0.08952
C          C       0.35726   0.80703   0.36694   0.09203
C          C       0.19326   0.55040   0.35278   0.08942
C          C       0.45249   0.64591   0.36044   0.09104
C          C       0.02086   0.14039   0.69719   0.09168
C          C       0.86066   0.88160   0.70352   0.09026
C          C       0.12137   0.98118   0.69836   0.08867
C          C       0.64830   0.46015   0.04139  -0.40597
C          C       0.54826   0.19251   0.03080  -0.41070
C          C       0.81174   0.35080   0.02063  -0.40451
C          C       0.31968   0.80099   0.34782  -0.40517
C          C       0.19893   0.51898   0.32780  -0.40279
C          C       0.48229   0.68423   0.34710  -0.40476
C          C       0.98176   0.12983   0.68469  -0.40553
C          C       0.87044   0.85265   0.69294  -0.40575
C          C       0.14553   0.02110   0.70957  -0.40699
C          C       0.69885   0.46174   0.19134  -0.40850
C          C       0.51731   0.22192   0.15083  -0.40375
C          C       0.76342   0.30338   0.17945  -0.41036
C          C       0.36081   0.79126   0.52074  -0.41332
C          C       0.21035   0.56910   0.50671  -0.41152
C          C       0.43317   0.64017   0.51516  -0.41053
C          C       0.02853   0.12862   0.85396  -0.40836
C          C       0.87378   0.90136   0.85886  -0.40976
C          C       0.10099   0.96654   0.85017  -0.40377
N          N       0.85018   0.44810   0.31829  -0.25935
N          N       0.55242   0.40392   0.31777  -0.25898
N          N       0.59714   0.14922   0.30014  -0.25284
N          N       0.51712   0.78131   0.63633  -0.25610
N          N       0.21779   0.73463   0.63761  -0.25524
N          N       0.26609   0.48272   0.64386  -0.25775
N          N       0.18282   0.11551   0.98574  -0.25526
N          N       0.88302   0.06772   0.98495  -0.25616
N          N       0.93132   0.81596   0.98240  -0.25787
N          N       0.14806   0.55678   0.11396  -0.22365
N          N       0.44584   0.59504   0.12471  -0.22312
N          N       0.40637   0.85113   0.12781  -0.21914
N          N       0.81562   0.88710   0.46381  -0.21940
N          N       0.11385   0.92946   0.47081  -0.22013
N          N       0.07186   0.18466   0.46435  -0.22160
N          N       0.48182   0.22115   0.79288  -0.22500
N          N       0.77658   0.25930   0.79166  -0.21878
N          N       0.73758   0.51785   0.80829  -0.22164
Cl         Cl      0.91388   0.51565   0.62002  -0.06516
Cl         Cl      0.48521   0.40213   0.61208  -0.06416
Cl         Cl      0.59949   0.08247   0.60624  -0.06279
Cl         Cl      0.57980   0.84534   0.93600  -0.06496
Cl         Cl      0.15250   0.73720   0.93637  -0.06531
Cl         Cl      0.26767   0.41764   0.94392  -0.06274
Cl         Cl      0.24340   0.18099   0.28728  -0.06540
Cl         Cl      0.81655   0.06925   0.28695  -0.06204
Cl         Cl      0.93330   0.75311   0.27761  -0.06622
Cl         Cl      0.07933   0.43366   0.92719  -0.11094
Cl         Cl      0.56847   0.64883   0.93535  -0.11033
Cl         Cl      0.35022   0.91832   0.95002  -0.11059
Cl         Cl      0.74889   0.76636   0.25458  -0.11016
Cl         Cl      0.23272   0.98085   0.25175  -0.11024
Cl         Cl      0.01960   0.25392   0.25323  -0.10966
Cl         Cl      0.41035   0.09836   0.60886  -0.11137
Cl         Cl      0.89725   0.31242   0.58217  -0.10989
Cl         Cl      0.68200   0.58493   0.62302  -0.10994
O          O       0.97395   0.47872   0.46119  -0.20391
O          O       0.52501   0.49895   0.45263  -0.20282
O          O       0.50464   0.02628   0.44532  -0.20316
O          O       0.64027   0.80794   0.77471  -0.20450
O          O       0.19394   0.83185   0.78212  -0.20244
O          O       0.17158   0.36004   0.77995  -0.20384
O          O       0.30828   0.14736   0.12431  -0.20499
O          O       0.85664   0.16330   0.13368  -0.20427
O          O       0.83609   0.69297   0.10999  -0.20599
O          O       0.02319   0.56167   0.36014  -0.19826
O          O       0.43934   0.46210   0.34374  -0.20037
O          O       0.54250   0.97796   0.32894  -0.20069
O          O       0.68790   0.89219   0.67320  -0.19911
O          O       0.10825   0.79551   0.67885  -0.20081
O          O       0.20734   0.31132   0.67418  -0.19919
O          O       0.35597   0.23257   0.99270  -0.20047
O          O       0.77333   0.12997   0.03196  -0.19889
O          O       0.87601   0.64605   0.98489  -0.20084

