data_crystal

_audit_creation_method 'AiiDA-DDEC plugin'

_cell_length_a        18.74161
_cell_length_b        48.05309
_cell_length_c        10.97702

_cell_angle_alpha     89.99701
_cell_angle_beta     90.29264
_cell_angle_gamma     90.06042

_symmetry_space_group_name_Hall 'P 1'
_symmetry_space_group_name_H-M  'P 1'

loop_
_symmetry_equiv_pos_as_xyz
 'x,y,z'

loop_
_atom_site_label
_atom_site_type_symbol
_atom_site_fract_x
_atom_site_fract_y
_atom_site_fract_z
_atom_site_charge
Zn         Zn      0.61314   0.62881   0.62759   0.78708
Zn         Zn      0.38377   0.37280   0.62418   0.78768
Zn         Zn      0.86996   0.62272   0.87900   0.78535
Zn         Zn      0.62682   0.87586   0.87027   0.78566
Zn         Zn      0.62278   0.12689   0.12130   0.78605
Zn         Zn      0.38022   0.87040   0.13203   0.78988
Zn         Zn      0.87286   0.12285   0.37902   0.78499
Zn         Zn      0.63651   0.37829   0.37432   0.78849
Zn         Zn      0.11648   0.62732   0.12645   0.78734
Zn         Zn      0.88668   0.37382   0.12586   0.78664
Zn         Zn      0.36649   0.62289   0.37504   0.78596
Zn         Zn      0.13672   0.87816   0.38046   0.78990
Zn         Zn      0.11614   0.12871   0.63436   0.79077
Zn         Zn      0.88392   0.87309   0.62644   0.78779
Zn         Zn      0.36643   0.12264   0.87408   0.78600
Zn         Zn      0.13347   0.37718   0.87517   0.78764
Si         Si      0.49811   0.50059   0.50041   0.69230
Si         Si      0.74956   0.75034   0.74983   0.69384
Si         Si      0.49766   0.00032  -0.00196   0.69198
Si         Si      0.75539   0.25025   0.24920   0.69232
Si         Si      0.00063   0.50092   0.00292   0.69287
Si         Si      0.24901   0.74928   0.25183   0.69292
Si         Si      0.00251   0.00011   0.50589   0.69252
Si         Si      0.24836   0.24907   0.75183   0.69255
H          H       0.00296   0.66030   0.75733   0.08118
H          H       0.99795   0.34021   0.75576   0.08233
H          H       0.25238   0.59060   0.00755   0.08164
H          H       0.24797   0.90874   0.01196   0.08165
H          H       0.00608   0.16016   0.25729   0.08135
H          H      -0.00164   0.84178   0.26408   0.08295
H          H       0.25162   0.09166   0.51616   0.08146
H          H       0.24761   0.40935   0.50517   0.08211
H          H       0.50204   0.66000   0.25745   0.08156
H          H       0.50092   0.34083   0.25853   0.08245
H          H       0.75100   0.59217   0.51597   0.08176
H          H       0.74655   0.90971   0.51251   0.08330
H          H       0.50458   0.15898   0.75894   0.08184
H          H       0.49268   0.83889   0.75008   0.08248
H          H       0.75611   0.08913   0.00489   0.08206
H          H       0.74932   0.41010   0.00728   0.08185
H          H       0.95077   0.67129   0.62960   0.09347
H          H       0.04792   0.32925   0.62631   0.09383
H          H       0.20085   0.57910   0.87989   0.09347
H          H       0.29801   0.91868   0.88087   0.09393
H          H       0.95422   0.17096   0.12890   0.09388
H          H       0.04714   0.83061   0.13361   0.09391
H          H       0.20040   0.08019   0.38804   0.09382
H          H       0.29730   0.42055   0.37573   0.09383
H          H       0.45126   0.67123   0.12851   0.09379
H          H       0.54948   0.33023   0.12688   0.09472
H          H       0.70277   0.58097   0.38410   0.09397
H          H       0.79449   0.92081   0.38100   0.09383
H          H       0.45439   0.17072   0.63022   0.09351
H          H       0.54304   0.82796   0.62098   0.09534
H          H       0.70590   0.07842   0.87430   0.09493
H          H       0.79890   0.42131   0.87777   0.09387
H          H       0.85540   0.68683   0.75915   0.08533
H          H       0.14583   0.31387   0.75336   0.08600
H          H       0.10587   0.56313   0.00943   0.08470
H          H       0.39817   0.93308   0.00606   0.08734
H          H       0.85821   0.18638   0.25790   0.08611
H          H       0.14461   0.81413   0.25890   0.08623
H          H       0.10454   0.06465   0.51741   0.08622
H          H       0.39501   0.43623   0.50286   0.08581
H          H       0.35474   0.68675   0.25608   0.08511
H          H       0.64911   0.31480   0.25015   0.08646
H          H       0.60406   0.56500   0.50638   0.08587
H          H       0.89364   0.93686   0.50401   0.08568
H          H       0.35887   0.18711   0.75700   0.08504
H          H       0.64062   0.81253   0.74921   0.08595
H          H       0.60748   0.06325  -0.00080   0.08609
H          H       0.89625   0.43733   0.00467   0.08540
H          H       0.93496   0.69942   0.82998   0.07782
H          H       0.06737   0.30077   0.82446   0.07785
H          H       0.18570   0.55119   0.08099   0.07800
H          H       0.32121   0.94780   0.07578   0.07734
H          H       0.93754   0.19945   0.32762   0.07893
H          H       0.06577   0.80188   0.33177   0.07844
H          H       0.18412   0.05230   0.58865   0.07826
H          H       0.31630   0.44904   0.57395   0.07759
H          H       0.43384   0.69922   0.32850   0.07805
H          H       0.57163   0.30139   0.32334   0.07888
H          H       0.68220   0.55255   0.58199   0.07907
H          H       0.81578   0.94947   0.57835   0.07774
H          H       0.43838   0.19850   0.83163   0.07937
H          H       0.56178   0.79949   0.81922   0.07948
H          H       0.68553   0.04999   0.07216   0.07868
H          H       0.81740   0.44985   0.07621   0.07802
H          H       0.93482   0.62973   0.53524   0.08417
H          H       0.06552   0.37064   0.53122   0.08355
H          H       0.18456   0.62065   0.78443   0.08437
H          H       0.31302   0.87706   0.78827   0.08357
H          H       0.93798   0.12901   0.03548   0.08356
H          H       0.06489   0.87193   0.03951   0.08364
H          H       0.18492   0.12166   0.29241   0.08304
H          H       0.31459   0.37924   0.28051   0.08431
H          H       0.43435   0.62966   0.03254   0.08335
H          H       0.56638   0.37159   0.03232   0.08406
H          H       0.68615   0.62230   0.28812   0.08422
H          H       0.81194   0.87962   0.28533   0.08396
H          H       0.43691   0.12946   0.53329   0.08508
H          H       0.55923   0.86991   0.52648   0.08502
H          H       0.68999   0.11994   0.77888   0.08478
H          H       0.81560   0.37977   0.78336   0.08463
H          H       0.90340   0.69775   0.03030   0.07609
H          H       0.09856   0.30231   0.02483   0.07524
H          H       0.15346   0.55293   0.28110   0.07568
H          H       0.34755   0.94606   0.27779   0.07530
H          H       0.90857   0.19765   0.52988   0.07606
H          H       0.09667   0.80326   0.53087   0.07628
H          H       0.15468   0.05424   0.78823   0.07690
H          H       0.34734   0.44735   0.77548   0.07526
H          H       0.40166   0.69750   0.52805   0.07614
H          H       0.60373   0.30270   0.52252   0.07581
H          H       0.64933   0.55413   0.78029   0.07699
H          H       0.85085   0.94823   0.77739   0.07470
H          H       0.40149   0.19711   0.02959   0.07681
H          H       0.59503   0.80090   0.02115   0.07583
H          H       0.65068   0.05130   0.27152   0.07496
H          H       0.84884   0.44832   0.27698   0.07543
H          H       0.92341   0.59285   0.42402   0.10353
H          H       0.07703   0.40793   0.42095   0.10476
H          H       0.17214   0.65730   0.67256   0.10297
H          H       0.32330   0.83992   0.67883   0.10314
H          H       0.92748   0.09151   0.92767   0.10346
H          H       0.07778   0.90843   0.92853   0.10397
H          H       0.17407   0.15831   0.18039   0.10263
H          H       0.32681   0.34211   0.16913   0.10364
H          H       0.42299   0.59243   0.92204   0.10400
H          H       0.57696   0.40861   0.92201   0.10489
H          H       0.67477   0.65895   0.17565   0.10448
H          H       0.82413   0.84288   0.17328   0.10360
H          H       0.42388   0.09291   0.42009   0.10265
H          H       0.57083   0.90743   0.41748   0.10455
H          H       0.67883   0.15716   0.66755   0.10459
H          H       0.82848   0.34292   0.67196   0.10379
H          H       0.87209   0.70076   0.22682   0.10443
H          H       0.12919   0.29884   0.22183   0.10466
H          H       0.12270   0.54997   0.47770   0.10523
H          H       0.37701   0.94945   0.47614   0.10504
H          H       0.87781   0.20058   0.72681   0.10481
H          H       0.12760   0.79969   0.72880   0.10542
H          H       0.12527   0.05094   0.98501   0.10478
H          H       0.37763   0.45060   0.97239   0.10466
H          H       0.37058   0.70057   0.72465   0.10493
H          H       0.63559   0.29930   0.72056   0.10566
H          H       0.61841   0.55078   0.97679   0.10605
H          H       0.88259   0.95151   0.97502   0.10470
H          H       0.36947   0.20012   0.22553   0.10511
H          H       0.62780   0.79799   0.21857   0.10500
H          H       0.61944   0.04821   0.46879   0.10568
H          H       0.87974   0.45165   0.47445   0.10571
H          H       0.81707   0.51784   0.53529   0.10066
H          H       0.18371   0.48261   0.53749   0.10066
H          H       0.06936   0.73285   0.78538   0.09998
H          H       0.43147   0.76539   0.79176   0.09999
H          H       0.81902   0.01730   0.04279   0.09941
H          H       0.18787   0.98285   0.03840   0.10076
H          H       0.07001   0.23386   0.28991   0.09902
H          H       0.43577   0.26784   0.28331   0.10055
H          H       0.31856   0.51732   0.03723   0.10065
H          H       0.68344   0.48361   0.03487   0.10062
H          H       0.56625   0.73371   0.28238   0.09929
H          H       0.93062   0.76793   0.28571   0.10044
H          H       0.31929   0.01748   0.53088   0.10100
H          H       0.68103   0.98132   0.53433   0.09978
H          H       0.57296   0.23203   0.78094   0.10111
H          H       0.93348   0.26792   0.78779   0.10040
H          H       0.79422   0.53899   0.73653   0.11839
H          H       0.20903   0.46055   0.73646   0.11785
H          H       0.04519   0.71158   0.98590   0.11745
H          H       0.45680   0.78713   0.99130   0.11717
H          H       0.79346   0.03966   0.24059   0.11847
H          H       0.21319   0.96138   0.23832   0.11659
H          H       0.04526   0.21285   0.49055   0.11750
H          H       0.46131   0.28986   0.48235   0.11817
H          H       0.29315   0.53927   0.23593   0.11782
H          H       0.71044   0.46182   0.23355   0.11758
H          H       0.54061   0.71254   0.48253   0.11760
H          H       0.95688   0.78953   0.48515   0.11740
H          H       0.29542   0.03856   0.73184   0.11757
H          H       0.70640   0.95883   0.73247   0.11835
H          H       0.54801   0.21027   0.98036   0.11872
H          H       0.95856   0.28969   0.98740   0.11815
H          H       0.81438   0.62988   0.44285   0.09475
H          H       0.18634   0.36924   0.44215   0.09409
H          H       0.06302   0.62079   0.69211   0.09432
H          H       0.43033   0.87885   0.69763   0.09397
H          H       0.81953   0.12969   0.94229   0.09406
H          H       0.18342   0.87027   0.94895   0.09357
H          H       0.06515   0.12122   0.20205   0.09345
H          H       0.43736   0.38017   0.19053   0.09507
H          H       0.31326   0.62966   0.94086   0.09493
H          H       0.68611   0.37035   0.94170   0.09391
H          H       0.56457   0.62153   0.19611   0.09385
H          H       0.93503   0.88040   0.19452   0.09407
H          H       0.31325   0.12898   0.44131   0.09408
H          H       0.68139   0.86946   0.43524   0.09442
H          H       0.56741   0.11941   0.68704   0.09461
H          H       0.93703   0.38103   0.69310   0.09434
H          H       0.83094   0.59917   0.26505   0.12629
H          H       0.17045   0.40036   0.26512   0.12589
H          H       0.07692   0.65131   0.51285   0.12619
H          H       0.41283   0.84770   0.52069   0.12590
H          H       0.83762   0.09892   0.76494   0.12629
H          H       0.17017   0.90116   0.77045   0.12480
H          H       0.07827   0.15209   0.02394   0.12576
H          H       0.42297   0.34931   0.01228   0.12650
H          H       0.32911   0.59896   0.76277   0.12616
H          H       0.66870   0.40127   0.76420   0.12574
H          H       0.57774   0.65231   0.01763   0.12569
H          H       0.92130   0.84979   0.01521   0.12648
H          H       0.32588   0.09863   0.26153   0.12633
H          H       0.66208   0.90001   0.25737   0.12608
H          H       0.58433   0.15012   0.50907   0.12630
H          H       0.92335   0.35024   0.51427   0.12624
H          H       0.98594   0.56811   0.32788   0.09724
H          H       0.01458   0.43315   0.32557   0.09710
H          H       0.23385   0.68141   0.57347   0.09748
H          H       0.26072   0.81477   0.58347   0.09580
H          H       0.99148   0.06550   0.83825   0.09580
H          H       0.01799   0.93249   0.82813   0.09729
H          H       0.23453   0.18205   0.07806   0.09623
H          H       0.26387   0.31671   0.07536   0.09587
H          H       0.48475   0.56777   0.82506   0.09547
H          H       0.51402   0.43333   0.82555   0.09647
H          H       0.73795   0.68436   0.08036   0.09719
H          H       0.76260   0.81820   0.07321   0.09684
H          H       0.48420   0.06878   0.31805   0.09702
H          H       0.50747   0.93410   0.32723   0.09627
H          H       0.74250   0.18278   0.57391   0.09706
H          H       0.76786   0.31834   0.57093   0.09607
H          H       0.80442   0.51293   0.32003   0.09681
H          H       0.19711   0.48776   0.32271   0.09650
H          H       0.05483   0.73768   0.57131   0.09647
H          H       0.44464   0.76105   0.57456   0.09666
H          H       0.80578   0.01263   0.82367   0.09683
H          H       0.19875   0.98806   0.82539   0.09565
H          H       0.05621   0.23865   0.07630   0.09634
H          H       0.44674   0.26241   0.06835   0.09671
H          H       0.30437   0.51206   0.82256   0.09687
H          H       0.69497   0.48877   0.81993   0.09649
H          H       0.55285   0.73744   0.06611   0.09681
H          H       0.94362   0.76291   0.07277   0.09680
H          H       0.30442   0.01273   0.31851   0.09655
H          H       0.69528   0.98584   0.31632   0.09706
H          H       0.55894   0.23674   0.56559   0.09687
H          H       0.94806   0.26268   0.57524   0.09631
H          H       0.84801   0.49274   0.12813   0.08080
H          H       0.15367   0.50858   0.13107   0.08059
H          H       0.09754   0.75776   0.37832   0.08115
H          H       0.40226   0.74148   0.37975   0.08093
H          H       0.84872   0.99261   0.63089   0.08045
H          H       0.15527   0.00827   0.63259   0.08081
H          H       0.09783   0.25807   0.88173   0.07986
H          H       0.40199   0.24155   0.87774   0.08150
H          H       0.34647   0.49193   0.62963   0.08044
H          H       0.65074   0.50896   0.62763   0.08065
H          H       0.59573   0.75733   0.87299   0.08094
H          H       0.90111   0.74260   0.87961   0.08039
H          H       0.34627   0.99237   0.12588   0.08070
H          H       0.65243   0.00664   0.12420   0.08083
H          H       0.60229   0.25751   0.37454   0.08113
H          H       0.90660   0.24222   0.38183   0.08057
H          H       0.02582   0.54949   0.13539   0.08512
H          H       0.97467   0.45239   0.13343   0.08508
H          H       0.27271   0.69986   0.37999   0.08490
H          H       0.22178   0.79676   0.38843   0.08508
H          H       0.03111   0.04706   0.64502   0.08471
H          H       0.97833   0.95104   0.63489   0.08545
H          H       0.27271   0.20002   0.88352   0.08536
H          H       0.22272   0.29744   0.88392   0.08473
H          H       0.52335   0.54918   0.63178   0.08469
H          H       0.47358   0.45188   0.63247   0.08488
H          H       0.77767   0.70279   0.88707   0.08351
H          H       0.72373   0.79946   0.87950   0.08518
H          H       0.52254   0.04994   0.12508   0.08546
H          H       0.46775   0.95340   0.13469   0.08513
H          H       0.78245   0.20204   0.38231   0.08407
H          H       0.72990   0.29939   0.37715   0.08512
H          H       0.91083   0.71651   0.41634   0.10160
H          H       0.08630   0.28395   0.41703   0.10237
H          H       0.16168   0.53471   0.66886   0.10152
H          H       0.33317   0.96437   0.66938   0.10325
H          H       0.91853   0.21553   0.91932   0.10208
H          H       0.08695   0.78398   0.91866   0.10224
H          H       0.16482   0.03549   0.17662   0.10206
H          H       0.33643   0.46550   0.16552   0.10219
H          H       0.41038   0.71596   0.91685   0.10123
H          H       0.59419   0.28351   0.91129   0.10223
H          H       0.65934   0.53516   0.16808   0.10234
H          H       0.84194   0.96708   0.16627   0.10105
H          H       0.40628   0.21641   0.41253   0.10101
H          H       0.58889   0.78236   0.40910   0.10144
H          H       0.65870   0.03230   0.66014   0.10109
H          H       0.83922   0.46687   0.66664   0.10202
H          H       0.74195   0.66087   0.52207   0.08824
H          H       0.26242   0.33710   0.51500   0.08816
H          H       0.99061   0.58960   0.77013   0.08608
H          H       0.50822   0.91108   0.76961   0.08793
H          H       0.74476   0.16145   0.01679   0.08715
H          H       0.25680   0.83914   0.02707   0.08592
H          H       0.99187   0.08949   0.27772   0.08658
H          H       0.51154   0.41221   0.26604   0.08846
H          H       0.23945   0.66081   0.01731   0.08759
H          H       0.76278   0.33939   0.01844   0.08863
H          H       0.48895   0.59009   0.27193   0.08651
H          H       0.01086   0.91138   0.27246   0.08804
H          H       0.24228   0.15928   0.52527   0.08645
H          H       0.75632   0.83893   0.51483   0.08870
H          H       0.49203   0.08897   0.76394   0.08824
H          H       0.01218   0.41259   0.76782   0.08805
H          H       0.70716   0.69275   0.68463   0.10167
H          H       0.29552   0.30540   0.68015   0.10186
H          H       0.95615   0.55794   0.93378   0.10242
H          H       0.54306   0.94345   0.93162   0.10255
H          H       0.71009   0.19340   0.17952   0.10257
H          H       0.29219   0.80690   0.18877   0.10222
H          H       0.95740   0.05729   0.43969   0.10387
H          H       0.54493   0.44414   0.43017   0.10198
H          H       0.20447   0.69243   0.18053   0.10252
H          H       0.79837   0.30760   0.18142   0.10161
H          H       0.45394   0.55800   0.43388   0.10247
H          H       0.04568   0.94292   0.43703   0.10187
H          H       0.20733   0.19097   0.68797   0.10107
H          H       0.79159   0.80770   0.68021   0.10092
H          H       0.45604   0.05762   0.92763   0.10120
H          H       0.04615   0.44419   0.93297   0.10274
H          H       0.87555   0.74903   0.57868   0.09460
H          H       0.12014   0.25147   0.58136   0.09359
H          H       0.12700   0.50242   0.83267   0.09493
H          H       0.36879   0.99757   0.83021   0.09349
H          H       0.88325   0.24821   0.08133   0.09330
H          H       0.12260   0.75110   0.08036   0.09438
H          H       0.12971   0.00255   0.33775   0.09522
H          H       0.37046   0.49815   0.32905   0.09375
H          H       0.37537   0.74818   0.08067   0.09412
H          H       0.62984   0.25114   0.07478   0.09504
H          H       0.62413   0.50246   0.32997   0.09467
H          H       0.87706   0.99924   0.33086   0.09486
H          H       0.37153   0.24854   0.57630   0.09542
H          H       0.62461   0.75051   0.57426   0.09459
H          H       0.62269   0.00039   0.82451   0.09463
H          H       0.87384   0.49921   0.83110   0.09414
C          C       0.94835   0.66207   0.72111  -0.06037
C          C       0.05191   0.33841   0.71783  -0.06103
C          C       0.19790   0.58844   0.97108  -0.05932
C          C       0.30181   0.90984   0.97299  -0.05955
C          C       0.95157   0.16185   0.22057  -0.06054
C          C       0.05206   0.83961   0.22533  -0.05789
C          C       0.19724   0.08956   0.47915  -0.05960
C          C       0.30154   0.41138   0.46721  -0.06158
C          C       0.44780   0.66191   0.21971  -0.05924
C          C       0.55446   0.33920   0.21864  -0.05910
C          C       0.69747   0.59013   0.47534  -0.05776
C          C       0.79996   0.91174   0.47250  -0.06031
C          C       0.45042   0.16132   0.72124  -0.05619
C          C       0.54677   0.83713   0.71253  -0.05905
C          C       0.70212   0.08757   0.96582  -0.06142
C          C       0.80324   0.41219   0.96933  -0.06003
C          C       0.90453   0.68060   0.80662  -0.07215
C          C       0.09704   0.31977   0.80174  -0.07297
C          C       0.15464   0.56977   0.05694  -0.07330
C          C       0.34879   0.92824   0.05500  -0.07406
C          C       0.90755   0.18047   0.30545  -0.07467
C          C       0.09660   0.82055   0.30824  -0.07496
C          C       0.15359   0.07103   0.56480  -0.07477
C          C       0.34633   0.43015   0.55127  -0.07269
C          C       0.40348   0.68044   0.30447  -0.07455
C          C       0.60079   0.32050   0.30035  -0.07425
C          C       0.65200   0.57131   0.55721  -0.07420
C          C       0.84577   0.93064   0.55445  -0.07332
C          C       0.40680   0.18013   0.80606  -0.07555
C          C       0.59164   0.81847   0.79703  -0.07654
C          C       0.65629   0.06907   0.04878  -0.07443
C          C       0.84777   0.43107   0.05322  -0.07339
C          C       0.91267   0.62047   0.61814   0.10624
C          C       0.08822   0.37979   0.61437   0.10916
C          C       0.16162   0.62980   0.86697   0.10717
C          C       0.33561   0.86793   0.87149   0.10765
C          C       0.91544   0.12009   0.11882   0.10818
C          C       0.08901   0.88087   0.12190   0.10725
C          C       0.16186   0.13093   0.37456   0.10739
C          C       0.33802   0.37013   0.36313   0.10744
C          C       0.41166   0.62049   0.11523   0.10916
C          C       0.58966   0.38072   0.11505   0.10738
C          C       0.66219   0.63144   0.36978   0.10678
C          C       0.83576   0.87050   0.36767   0.10800
C          C       0.41358   0.12021   0.61538   0.10651
C          C       0.58247   0.87882   0.60968   0.10921
C          C       0.66743   0.12919   0.86154   0.10756
C          C       0.83924   0.37076   0.86602   0.10591
C          C       0.88861   0.67568   0.02172   0.11834
C          C       0.11355   0.32436   0.01721   0.11851
C          C       0.13776   0.57487   0.27171   0.11771
C          C       0.36197   0.92394   0.27110   0.11898
C          C       0.89352   0.17561   0.52126   0.11910
C          C       0.11351   0.82511   0.52314   0.11697
C          C       0.13852   0.07615   0.77959   0.11934
C          C       0.36304   0.42540   0.76690   0.11797
C          C       0.38666   0.67547   0.51937   0.11790
C          C       0.61818   0.32482   0.51547   0.11809
C          C       0.63346   0.57607   0.77166   0.11766
C          C       0.86596   0.92621   0.76914   0.11729
C          C       0.38612   0.17513   0.02000   0.11629
C          C       0.60879   0.82306   0.01294   0.11819
C          C       0.63762   0.07353   0.26367   0.11676
C          C       0.86488   0.42641   0.26864   0.11877
C          C       0.88357   0.59297   0.60532  -0.10333
C          C       0.11830   0.40714   0.60205  -0.10342
C          C       0.13234   0.65724   0.85383  -0.10327
C          C       0.36494   0.84049   0.85959  -0.10171
C          C       0.88558   0.09267   0.10754  -0.10422
C          C       0.11990   0.90803   0.10876  -0.10274
C          C       0.13321   0.15844   0.36085  -0.10344
C          C       0.36853   0.34291   0.34993  -0.10293
C          C       0.38209   0.59305   0.10262  -0.10286
C          C       0.61941   0.40811   0.10229  -0.10299
C          C       0.63244   0.65876   0.35545  -0.10192
C          C       0.86602   0.84324   0.35402  -0.10496
C          C       0.38373   0.09287   0.60122  -0.10323
C          C       0.61294   0.90613   0.59798  -0.10453
C          C       0.63799   0.15662   0.84842  -0.10421
C          C       0.86914   0.34342   0.85346  -0.10322
C          C       0.89523   0.58044   0.49123  -0.14457
C          C       0.10575   0.42007   0.48897  -0.14259
C          C       0.14452   0.66981   0.74002  -0.14275
C          C       0.35219   0.82769   0.74626  -0.14282
C          C       0.89842   0.07951   0.99524  -0.14232
C          C       0.10722   0.92069   0.99515  -0.14369
C          C       0.14600   0.17091   0.24698  -0.14136
C          C       0.35591   0.33001   0.23671  -0.14334
C          C       0.39475   0.58015   0.98968  -0.14346
C          C       0.60593   0.42091   0.98915  -0.14437
C          C       0.64557   0.67130   0.24178  -0.14341
C          C       0.85303   0.83055   0.24040  -0.14231
C          C       0.39572   0.08041   0.48703  -0.14141
C          C       0.60037   0.91932   0.48537  -0.14208
C          C       0.65037   0.16941   0.73501  -0.14373
C          C       0.85675   0.33062   0.73990  -0.14267
C          C       0.87162   0.66150   0.13303  -0.09345
C          C       0.13045   0.33831   0.12935  -0.09416
C          C       0.11982   0.58904   0.38249  -0.09177
C          C       0.37674   0.90996   0.38405  -0.09419
C          C       0.87739   0.16135   0.63282  -0.09374
C          C       0.13067   0.83899   0.63533  -0.09276
C          C       0.12122   0.09016   0.89098  -0.09463
C          C       0.38064   0.41135   0.87853  -0.09474
C          C       0.36950   0.66133   0.63059  -0.09328
C          C       0.63422   0.33875   0.62806  -0.09433
C          C       0.61597   0.59006   0.88307  -0.09414
C          C       0.88393   0.91226   0.88089  -0.09340
C          C       0.36716   0.16102   0.13053  -0.09297
C          C       0.62546   0.83727   0.12468  -0.09304
C          C       0.62076   0.08755   0.37539  -0.09282
C          C       0.88256   0.41242   0.38033  -0.09492
C          C       0.86431   0.67842   0.23767  -0.14238
C          C       0.13711   0.32117   0.23369  -0.14177
C          C       0.11377   0.57226   0.48782  -0.14280
C          C       0.38371   0.92708   0.48816  -0.14105
C          C       0.87006   0.17823   0.73748  -0.14110
C          C       0.13593   0.82199   0.74019  -0.14311
C          C       0.11593   0.07319   0.99589  -0.14067
C          C       0.38660   0.42832   0.98349  -0.14131
C          C       0.36263   0.67822   0.73542  -0.14227
C          C       0.64173   0.32170   0.73242  -0.14271
C          C       0.61027   0.57309   0.98796  -0.14477
C          C       0.89016   0.92916   0.98608  -0.14380
C          C       0.36093   0.17780   0.23596  -0.14342
C          C       0.63417   0.82041   0.22944  -0.14266
C          C       0.61290   0.07061   0.47994  -0.14342
C          C       0.88828   0.42935   0.48540  -0.14190
C          C       0.87257   0.55370   0.46120   0.02135
C          C       0.12844   0.44690   0.46072   0.02017
C          C       0.12264   0.69664   0.71027   0.01805
C          C       0.37508   0.80099   0.71677   0.01994
C          C       0.87557   0.05269   0.96695   0.01931
C          C       0.13077   0.94725   0.96460   0.02128
C          C       0.12400   0.19766   0.21612   0.02072
C          C       0.37886   0.30326   0.20789   0.01952
C          C       0.37256   0.55327   0.96090   0.01950
C          C       0.62798   0.44775   0.95973   0.02112
C          C       0.62270   0.69793   0.21057   0.02010
C          C       0.87547   0.80381   0.21061   0.02014
C          C       0.37315   0.05369   0.45652   0.01958
C          C       0.62403   0.94605   0.45748   0.01998
C          C       0.62797   0.19623   0.70593   0.01914
C          C       0.87924   0.30382   0.71105   0.01848
C          C       0.83492   0.53907   0.55309  -0.09274
C          C       0.16643   0.46125   0.55355  -0.09343
C          C       0.08602   0.71148   0.80257  -0.09097
C          C       0.41366   0.78662   0.80883  -0.09257
C          C       0.83681   0.03859   0.05901  -0.09203
C          C       0.16973   0.96168   0.05607  -0.09435
C          C       0.08688   0.21254   0.30774  -0.09080
C          C       0.41782   0.28906   0.29999  -0.09489
C          C       0.33529   0.53874   0.05343  -0.09149
C          C       0.66642   0.46225   0.05162  -0.09209
C          C       0.58397   0.71253   0.30101  -0.09135
C          C       0.91359   0.78926   0.30268  -0.09146
C          C       0.33623   0.03882   0.54849  -0.09172
C          C       0.66300   0.96005   0.55018  -0.09565
C          C       0.59018   0.21070   0.79792  -0.09278
C          C       0.91653   0.28928   0.80414  -0.09126
C          C       0.82202   0.55075   0.66648  -0.22431
C          C       0.18070   0.44907   0.66566  -0.22335
C          C       0.07239   0.69973   0.91554  -0.22280
C          C       0.42793   0.79865   0.92136  -0.22272
C          C       0.82243   0.05096   0.17048  -0.22463
C          C       0.18403   0.94981   0.16882  -0.22129
C          C       0.07292   0.20094   0.42091  -0.22416
C          C       0.43221   0.30121   0.41215  -0.22328
C          C       0.32100   0.55085   0.16541  -0.22291
C          C       0.68162   0.45021   0.16374  -0.22261
C          C       0.56957   0.70083   0.41382  -0.22222
C          C       0.92833   0.80118   0.41518  -0.22295
C          C       0.32283   0.05044   0.66173  -0.22217
C          C       0.67720   0.94764   0.66183  -0.22069
C          C       0.57620   0.19870   0.91026  -0.22222
C          C       0.93058   0.30129   0.91667  -0.22342
C          C       0.84597   0.57802   0.69903   0.32569
C          C       0.15781   0.42156   0.69566   0.32514
C          C       0.09449   0.67219   0.94714   0.32493
C          C       0.40451   0.82600   0.95295   0.32355
C          C       0.84585   0.07843   0.20088   0.32463
C          C       0.16043   0.92250   0.20099   0.32485
C          C       0.09502   0.17346   0.45352   0.32653
C          C       0.40840   0.32854   0.44312   0.32517
C          C       0.34296   0.57849   0.19563   0.32431
C          C       0.65942   0.42268   0.19497   0.32327
C          C       0.59265   0.67351   0.44708   0.32374
C          C       0.90603   0.82867   0.44666   0.32267
C          C       0.34527   0.07791   0.69393   0.32399
C          C       0.65343   0.92020   0.69146   0.32333
C          C       0.59903   0.17124   0.94147   0.32297
C          C       0.90811   0.32882   0.94724   0.32575
C          C       0.84285   0.66797   0.35004   0.01609
C          C       0.15818   0.33139   0.34698   0.01702
C          C       0.09214   0.58275   0.59991   0.01601
C          C       0.40381   0.91676   0.60173   0.01634
C          C       0.84845   0.16774   0.84962   0.01614
C          C       0.15615   0.83234   0.85372   0.01782
C          C       0.09438   0.08341   0.10850   0.01573
C          C       0.40817   0.41804   0.09640   0.01606
C          C       0.34142   0.66774   0.84782   0.01751
C          C       0.66135   0.33220   0.84602   0.01796
C          C       0.59022   0.58345   0.10113   0.01785
C          C       0.91002   0.91863   0.09949   0.01639
C          C       0.34010   0.16725   0.34850   0.01550
C          C       0.65510   0.83110   0.34207   0.01676
C          C       0.59269   0.08118   0.59275   0.01567
C          C       0.90926   0.41897   0.59844   0.01612
C          C       0.83080   0.63889   0.35658  -0.10397
C          C       0.17019   0.36045   0.35500  -0.10222
C          C       0.07909   0.61176   0.60576  -0.10432
C          C       0.41448   0.88766   0.61038  -0.10387
C          C       0.83647   0.13867   0.85625  -0.10353
C          C       0.16825   0.86139   0.86154  -0.10540
C          C       0.08116   0.11238   0.11530  -0.10338
C          C       0.42117   0.38903   0.10357  -0.10500
C          C       0.32937   0.63866   0.85441  -0.10437
C          C       0.67108   0.36138   0.85433  -0.10406
C          C       0.57892   0.61255   0.10872  -0.10386
C          C       0.92081   0.88948   0.10699  -0.10351
C          C       0.32807   0.13815   0.35453  -0.10343
C          C       0.66533   0.86030   0.34880  -0.10329
C          C       0.58250   0.11035   0.60016  -0.10506
C          C       0.92154   0.38993   0.60588  -0.10381
C          C       0.83968   0.62150   0.25756  -0.22099
C          C       0.16177   0.37805   0.25638  -0.22312
C          C       0.08647   0.62902   0.50598  -0.21953
C          C       0.40524   0.87006   0.51192  -0.22252
C          C       0.84605   0.12127   0.75741  -0.22103
C          C       0.16134   0.87884   0.76223  -0.21897
C          C       0.08807   0.12984   0.01601  -0.22060
C          C       0.41355   0.37159   0.00427  -0.22047
C          C       0.33785   0.62129   0.75527  -0.22018
C          C       0.66176   0.37886   0.75558  -0.22151
C          C       0.58598   0.62998   0.00937  -0.22002
C          C       0.91350   0.87216   0.00726  -0.22096
C          C       0.33493   0.12095   0.25444  -0.21978
C          C       0.65487   0.87760   0.24977  -0.22203
C          C       0.59165   0.12772   0.50121  -0.22123
C          C       0.91437   0.37254   0.50639  -0.22010
C          C       0.85928   0.63186   0.14094   0.32732
C          C       0.14305   0.36793   0.13853   0.32889
C          C       0.10533   0.61853   0.38924   0.32599
C          C       0.38736   0.88030   0.39404   0.32738
C          C       0.86563   0.13169   0.64088   0.32610
C          C       0.14425   0.86850   0.64413   0.32832
C          C       0.10634   0.11962   0.89851   0.32818
C          C       0.39478   0.38184   0.88671   0.32709
C          C       0.35683   0.63171   0.63840   0.32643
C          C       0.64442   0.36846   0.63766   0.32902
C          C       0.60270   0.61962   0.89136   0.32712
C          C       0.89696   0.88270   0.88919   0.32836
C          C       0.35280   0.13151   0.13724   0.32872
C          C       0.63562   0.86702   0.13296   0.32814
C          C       0.60974   0.11723   0.38406   0.32961
C          C       0.89686   0.38294   0.38854   0.32662
C          C       0.95372   0.55220   0.28363  -0.12923
C          C       0.04696   0.44908   0.28249  -0.12939
C          C       0.20196   0.69754   0.53030  -0.12939
C          C       0.29360   0.79930   0.53844  -0.12945
C          C       0.95835   0.05016   0.79221  -0.12940
C          C       0.05012   0.94848   0.78494  -0.12890
C          C       0.20262   0.19817   0.03487  -0.12773
C          C       0.29608   0.30087   0.03143  -0.12833
C          C       0.45250   0.55175   0.78182  -0.12913
C          C       0.54598   0.44929   0.78173  -0.12657
C          C       0.70495   0.69975   0.03448  -0.13128
C          C       0.79498   0.80226   0.03035  -0.12786
C          C       0.45202   0.05261   0.27564  -0.12735
C          C       0.54098   0.94936   0.28206  -0.13027
C          C       0.70989   0.19854   0.52961  -0.12968
C          C       0.80022   0.30224   0.52915  -0.12816
C          C       0.89209   0.54195   0.34142   0.07720
C          C       0.10884   0.45901   0.34147   0.07677
C          C       0.14152   0.70821   0.58999   0.07805
C          C       0.35569   0.78929   0.59652   0.07723
C          C       0.89544   0.04057   0.84807   0.07687
C          C       0.11134   0.95891   0.84440   0.07706
C          C       0.14260   0.20903   0.09517   0.07720
C          C       0.35854   0.29107   0.08903   0.07784
C          C       0.39159   0.54137   0.84124   0.07859
C          C       0.60766   0.45961   0.84019   0.07467
C          C       0.64236   0.70953   0.09061   0.07869
C          C       0.85612   0.79201   0.09050   0.07733
C          C       0.39157   0.04210   0.33604   0.07773
C          C       0.60448   0.95842   0.33867   0.07751
C          C       0.64764   0.20829   0.58687   0.07842
C          C       0.86078   0.29194   0.59075   0.07688
C          C       0.85372   0.52080   0.28066  -0.15489
C          C       0.14757   0.48018   0.28224  -0.15453
C          C       0.10339   0.72956   0.53039  -0.15355
C          C       0.39502   0.76871   0.53481  -0.15491
C          C       0.85591   0.02002   0.78556  -0.15432
C          C       0.14968   0.98010   0.78461  -0.15272
C          C       0.10443   0.23030   0.03507  -0.15386
C          C       0.39688   0.26994   0.02903  -0.15481
C          C       0.35312   0.52007   0.78173  -0.15472
C          C       0.64565   0.48084   0.77995  -0.15305
C          C       0.60285   0.73000   0.02783  -0.15532
C          C       0.89469   0.77080   0.03139  -0.15516
C          C       0.35300   0.02074   0.27710  -0.15396
C          C       0.64470   0.97887   0.27753  -0.15621
C          C       0.60868   0.22928   0.52642  -0.15354
C          C       0.89949   0.27060   0.53281  -0.15374
C          C       0.87820   0.50956   0.17055  -0.06731
C          C       0.12317   0.49176   0.17232  -0.06845
C          C       0.12727   0.74069   0.41971  -0.06894
C          C       0.37121   0.75784   0.42306  -0.06792
C          C       0.88006   0.00890   0.67490  -0.06795
C          C       0.12530   0.99132   0.67399  -0.06859
C          C       0.12778   0.24110   0.92337  -0.06822
C          C       0.37176   0.25834   0.91955  -0.06804
C          C       0.37673   0.50888   0.67096  -0.06714
C          C       0.62084   0.49205   0.66957  -0.06792
C          C       0.62698   0.74106   0.91709  -0.06725
C          C       0.87085   0.75951   0.92057  -0.06600
C          C       0.37647   0.00942   0.16659  -0.06876
C          C       0.62057   0.99047   0.16740  -0.06728
C          C       0.63303   0.24084   0.41681  -0.06807
C          C       0.87623   0.25922   0.42179  -0.06801
C          C       0.94112   0.51918   0.11531  -0.22720
C          C       0.05996   0.48245   0.11593  -0.22691
C          C       0.18928   0.73073   0.36285  -0.22728
C          C       0.30800   0.76727   0.36724  -0.22584
C          C       0.94386   0.01803   0.62100  -0.22708
C          C       0.06261   0.98158   0.61732  -0.22732
C          C       0.18939   0.23095   0.86577  -0.22561
C          C       0.30818   0.26758   0.86432  -0.22778
C          C       0.43892   0.51868   0.61392  -0.22723
C          C       0.55794   0.48232   0.61352  -0.22729
C          C       0.69079   0.73195   0.86338  -0.22625
C          C       0.80837   0.76912   0.86292  -0.22893
C          C       0.43857   0.01917   0.10909  -0.22734
C          C       0.55608   0.98194   0.11295  -0.22593
C          C       0.69644   0.23169   0.36187  -0.22679
C          C       0.81420   0.26886   0.36282  -0.22635
C          C       0.97679   0.54129   0.17389  -0.06120
C          C       0.02393   0.46032   0.17301  -0.06226
C          C       0.22443   0.70833   0.41997  -0.06078
C          C       0.27118   0.78878   0.42720  -0.06091
C          C       0.98112   0.03939   0.68206  -0.06055
C          C       0.02717   0.95933   0.67466  -0.06134
C          C       0.22468   0.20867   0.92368  -0.06189
C          C       0.27238   0.28961   0.92234  -0.06249
C          C       0.47476   0.54089   0.67153  -0.06138
C          C       0.52260   0.46015   0.67165  -0.06200
C          C       0.72779   0.71051   0.92424  -0.05887
C          C       0.77249   0.79129   0.91987  -0.06234
C          C       0.47418   0.04159   0.16552  -0.06177
C          C       0.51818   0.96063   0.17252  -0.06235
C          C       0.73289   0.20979   0.42043  -0.06187
C          C       0.77829   0.29117   0.41860  -0.06331
C          C       0.86592   0.71135   0.47477  -0.14598
C          C       0.13251   0.28856   0.47417  -0.14732
C          C       0.11642   0.53975   0.72661  -0.14538
C          C       0.37954   0.95993   0.72632  -0.14697
C          C       0.87249   0.21079   0.97584  -0.14617
C          C       0.13219   0.78893   0.97749  -0.14702
C          C       0.11902   0.04019   0.23371  -0.14553
C          C       0.38250   0.46091   0.22300  -0.14692
C          C       0.36505   0.71086   0.97441  -0.14753
C          C       0.63910   0.28875   0.97037  -0.14671
C          C       0.61413   0.54013   0.22607  -0.14717
C          C       0.88677   0.96181   0.22542  -0.14631
C          C       0.36261   0.21079   0.47283  -0.14477
C          C       0.63359   0.78787   0.46818  -0.14647
C          C       0.61415   0.03782   0.71867  -0.14608
C          C       0.88477   0.46196   0.72475  -0.14629
C          C       0.82813   0.68635   0.45464   0.08024
C          C       0.17255   0.31288   0.45174   0.08113
C          C       0.07790   0.56449   0.70508   0.07969
C          C       0.41892   0.93542   0.70549   0.08203
C          C       0.83344   0.18618   0.95385   0.08073
C          C       0.17031   0.81385   0.95837   0.08113
C          C       0.08006   0.06484   0.21277   0.08004
C          C       0.42228   0.43652   0.20129   0.08149
C          C       0.32675   0.68605   0.95268   0.08087
C          C       0.67657   0.31380   0.95064   0.08112
C          C       0.57593   0.56499   0.20572   0.08020
C          C       0.92451   0.93689   0.20497   0.08132
C          C       0.32606   0.18546   0.45406   0.08109
C          C       0.67071   0.81296   0.44741   0.08059
C          C       0.57733   0.06297   0.69769   0.08241
C          C       0.92371   0.43736   0.70337   0.08134
C          C       0.77221   0.67994   0.53504  -0.13894
C          C       0.23024   0.31862   0.53043  -0.13980
C          C       0.02147   0.57075   0.78452  -0.13695
C          C       0.47677   0.92978   0.78382  -0.14066
C          C       0.77605   0.18021   0.03177  -0.13804
C          C       0.22655   0.82006   0.03936  -0.14099
C          C       0.02303   0.07069   0.29164  -0.13905
C          C       0.47967   0.43078   0.28054  -0.13947
C          C       0.27017   0.67971   0.03179  -0.13987
C          C       0.73271   0.32029   0.03140  -0.14166
C          C       0.51952   0.57113   0.28543  -0.13890
C          C       0.98053   0.93038   0.28595  -0.13962
C          C       0.27163   0.17861   0.53676  -0.14184
C          C       0.72648   0.81979   0.52843  -0.13981
C          C       0.52165   0.06981   0.77782  -0.14125
C          C       0.98080   0.43127   0.78275  -0.13815
C          C       0.75240   0.69819   0.62734  -0.06774
C          C       0.24915   0.30043   0.62389  -0.06569
C          C       0.00185   0.55262   0.87739  -0.06788
C          C       0.49668   0.94834   0.87528  -0.06427
C          C       0.75625   0.19852   0.12383  -0.06674
C          C       0.24667   0.80162   0.13101  -0.06650
C          C       0.00331   0.05223   0.38330  -0.06778
C          C       0.49873   0.44908   0.37352  -0.06565
C          C       0.25030   0.69782   0.12453  -0.06756
C          C       0.75289   0.30209   0.12403  -0.06508
C          C       0.49960   0.55275   0.37726  -0.06662
C          C       0.00034   0.94844   0.37938  -0.06750
C          C       0.25178   0.19674   0.62949  -0.06628
C          C       0.74655   0.80191   0.62232  -0.06806
C          C       0.50125   0.05186   0.87093  -0.06624
C          C       0.00021   0.44940   0.87614  -0.06829
C          C       0.78883   0.72351   0.64590  -0.23371
C          C       0.21023   0.27581   0.64517  -0.23320
C          C       0.03913   0.52760   0.89750  -0.23376
C          C       0.45861   0.97321   0.89451  -0.23479
C          C       0.79407   0.22345   0.14445  -0.23456
C          C       0.21005   0.77633   0.14827  -0.23534
C          C       0.04088   0.02723   0.40239  -0.23295
C          C       0.46022   0.47380   0.39383  -0.23497
C          C       0.28748   0.72288   0.14507  -0.23281
C          C       0.71650   0.27680   0.14273  -0.23518
C          C       0.53653   0.52759   0.39611  -0.23467
C          C       0.96378   0.97365   0.39860  -0.23503
C          C       0.28699   0.22235   0.64672  -0.23438
C          C       0.71057   0.77656   0.64193  -0.23447
C          C       0.53700   0.02649   0.89091  -0.23434
C          C       0.96232   0.47425   0.89646  -0.23466
C          C       0.84640   0.72953   0.56798  -0.06324
C          C       0.15124   0.27042   0.56847  -0.06299
C          C       0.09719   0.52170   0.82051  -0.06306
C          C       0.39927   0.97845   0.81855  -0.06306
C          C       0.85293   0.22905   0.06878  -0.06187
C          C       0.15193   0.77056   0.07018  -0.06138
C          C       0.09956   0.02177   0.32617  -0.06338
C          C       0.40136   0.47916   0.31686  -0.06189
C          C       0.34563   0.72887   0.06834  -0.06283
C          C       0.65885   0.27065   0.06415  -0.06302
C          C       0.59460   0.52184   0.31893  -0.06218
C          C       0.90623   0.97980   0.31984  -0.06288
C          C       0.34331   0.22880   0.56675  -0.06335
C          C       0.65335   0.77006   0.56297  -0.06120
C          C       0.59419   0.01998   0.81294  -0.06335
C          C       0.90395   0.48002   0.81900  -0.06194
N          N       0.91627   0.63443   0.71926  -0.27015
N          N       0.08437   0.36595   0.71559  -0.27174
N          N       0.16480   0.61587   0.96814  -0.27171
N          N       0.33249   0.88198   0.97224  -0.27054
N          N       0.91926   0.13425   0.21920  -0.26955
N          N       0.08589   0.86692   0.22297  -0.27100
N          N       0.16436   0.11703   0.47585  -0.27153
N          N       0.33458   0.38395   0.46455  -0.27117
N          N       0.41518   0.63438   0.21651  -0.27084
N          N       0.58663   0.36682   0.21622  -0.26975
N          N       0.66442   0.61756   0.47119  -0.27221
N          N       0.83291   0.88430   0.46906  -0.27005
N          N       0.41672   0.13398   0.71703  -0.27235
N          N       0.57916   0.86471   0.71035  -0.27121
N          N       0.67065   0.11529   0.96283  -0.26915
N          N       0.83645   0.38478   0.96703  -0.27072
N          N       0.88582   0.66453   0.91406  -0.26763
N          N       0.11648   0.33563   0.90979  -0.26753
N          N       0.13499   0.58585   0.16372  -0.26759
N          N       0.36643   0.91255   0.16428  -0.26675
N          N       0.88945   0.16456   0.41365  -0.26677
N          N       0.11777   0.83628   0.41567  -0.26707
N          N       0.13457   0.08717   0.67181  -0.26799
N          N       0.36612   0.41432   0.65919  -0.26616
N          N       0.38396   0.66437   0.41151  -0.26699
N          N       0.62101   0.33624   0.40835  -0.26800
N          N       0.63070   0.58719   0.66384  -0.26772
N          N       0.86735   0.91491   0.66168  -0.26730
N          N       0.38523   0.16405   0.91204  -0.26682
N          N       0.61070   0.83431   0.90536  -0.26781
N          N       0.63696   0.08498   0.15639  -0.26765
N          N       0.86809   0.41529   0.16091  -0.26744
O          O       0.86459   0.61400   0.05114  -0.50341
O          O       0.13875   0.38591   0.04894  -0.50648
O          O       0.10795   0.63612   0.29820  -0.50309
O          O       0.38191   0.86230   0.30467  -0.50736
O          O       0.87147   0.11388   0.55098  -0.50552
O          O       0.14214   0.88630   0.55381  -0.50657
O          O       0.10810   0.13735   0.80783  -0.50556
O          O       0.39199   0.36401   0.79646  -0.50320
O          O       0.36129   0.61393   0.54827  -0.50539
O          O       0.63898   0.38635   0.54807  -0.50815
O          O       0.60493   0.63740   0.80092  -0.50422
O          O       0.89498   0.86503   0.79843  -0.50344
O          O       0.35487   0.11395   0.04607  -0.50284
O          O       0.62855   0.88477   0.04309  -0.50622
O          O       0.61487   0.13504   0.29430  -0.50557
O          O       0.89531   0.36523   0.29782  -0.50310
O          O       0.83308   0.58756   0.80852  -0.50949
O          O       0.17361   0.41128   0.80302  -0.51165
O          O       0.07985   0.66245   0.05559  -0.50847
O          O       0.41988   0.83603   0.06103  -0.50937
O          O       0.83030   0.08880   0.30791  -0.50918
O          O       0.17667   0.91247   0.30867  -0.50924
O          O       0.07994   0.16381   0.56199  -0.50892
O          O       0.42374   0.33875   0.55070  -0.51113
O          O       0.32658   0.58874   0.30255  -0.51005
O          O       0.67645   0.41253   0.30221  -0.51046
O          O       0.57668   0.66378   0.55515  -0.50787
O          O       0.92291   0.83876   0.55399  -0.50802
O          O       0.33007   0.08758   0.80232  -0.50844
O          O       0.66960   0.90967   0.79814  -0.51196
O          O       0.58354   0.16122   0.04921  -0.50963
O          O       0.92353   0.33887   0.05518  -0.50922

