data_crystal

_audit_creation_method 'AiiDA-DDEC plugin'

_cell_length_a        18.69376
_cell_length_b        53.34909
_cell_length_c        10.87452

_cell_angle_alpha     90.27864
_cell_angle_beta     90.28004
_cell_angle_gamma     89.54579

_symmetry_space_group_name_Hall 'P 1'
_symmetry_space_group_name_H-M  'P 1'

loop_
_symmetry_equiv_pos_as_xyz
 'x,y,z'

loop_
_atom_site_label
_atom_site_type_symbol
_atom_site_fract_x
_atom_site_fract_y
_atom_site_fract_z
_atom_site_charge
Si         Si      0.50594   0.50055   0.39930   0.69318
Si         Si      0.74606   0.75049   0.65546   0.69375
Si         Si      0.49986   0.00062   0.89962   0.69535
Si         Si      0.74790   0.24978   0.15378   0.68992
Si         Si      0.00222   0.49965   0.90152   0.69199
Si         Si      0.24505   0.75067   0.15399   0.69370
Si         Si      0.00332   0.00042   0.40053   0.69020
Si         Si      0.24851   0.24987   0.65293   0.69010
H          H       0.66051   0.17466   0.18329   0.09724
H          H       0.34333   0.82112   0.18647   0.09486
H          H       0.90850   0.07299   0.43004   0.09359
H          H       0.60588   0.42951   0.42604   0.09160
H          H       0.65766   0.67878   0.68001   0.09391
H          H       0.34665   0.32170   0.68159   0.09299
H          H       0.90510   0.57270   0.93097   0.09305
H          H       0.59004   0.92383   0.90858   0.09677
H          H       0.15111   0.17891   0.68878   0.09109
H          H       0.84178   0.82246   0.68004   0.09322
H          H       0.40234   0.07455   0.93066   0.09369
H          H       0.08785   0.42763   0.92066   0.09305
H          H       0.15937   0.67358   0.17232   0.09881
H          H       0.83860   0.32411   0.17486   0.09337
H          H       0.41204   0.57107   0.43088   0.09272
H          H       0.09236   0.92543   0.41882   0.09413
H          H       0.59755   0.19797   0.14362   0.08035
H          H       0.41102   0.79932   0.14195   0.07978
H          H       0.84474   0.05000   0.39275   0.08351
H          H       0.68176   0.44765   0.39140   0.08003
H          H       0.59182   0.70125   0.64384   0.08554
H          H       0.41300   0.30002   0.63188   0.08056
H          H       0.83767   0.55139   0.88856   0.07924
H          H       0.65392   0.94730   0.87838   0.08433
H          H       0.08476   0.19926   0.62916   0.07869
H          H       0.90573   0.80033   0.63249   0.08285
H          H       0.33258   0.05366   0.89739   0.08063
H          H       0.15539   0.44788   0.86884   0.08223
H          H       0.09595   0.69779   0.14366   0.08508
H          H       0.90361   0.30205   0.12981   0.08116
H          H       0.34565   0.54989   0.38242   0.08108
H          H       0.15820   0.94793   0.38362   0.08246
H          H       0.50144   0.16397   0.16428   0.08803
H          H       0.50300   0.83262   0.18024   0.08649
H          H       0.74649   0.08154   0.44802   0.08858
H          H       0.75873   0.40926   0.42449   0.08689
H          H       0.49832   0.66696   0.69431   0.09130
H          H       0.50617   0.33353   0.67724   0.08446
H          H       0.74500   0.58447   0.93981   0.08667
H          H       0.75151   0.91523   0.93446   0.08991
H          H       0.99504   0.16415   0.65910   0.08559
H          H       0.00267   0.83403   0.68349   0.08823
H          H       0.24583   0.09139   0.91467   0.08758
H          H       0.24614   0.41255   0.91546   0.09444
H          H       0.99731   0.66518   0.17724   0.08975
H          H       0.99809   0.33679   0.17424   0.08791
H          H       0.25191   0.58298   0.43049   0.08761
H          H       0.25315   0.91479   0.43819   0.08992
H          H       0.54547   0.17332   0.30219   0.09872
H          H       0.45238   0.82470   0.31392   0.09611
H          H       0.80469   0.07500   0.57346   0.09651
H          H       0.71118   0.41852   0.55761   0.08527
H          H       0.55701   0.67397   0.82042   0.09559
H          H       0.45257   0.32575   0.80765   0.09577
H          H       0.79940   0.57618   0.06733   0.09768
H          H       0.69046   0.92156   0.05587   0.09463
H          H       0.03888   0.17248   0.79967   0.09858
H          H       0.94894   0.82660   0.81326   0.09935
H          H       0.29343   0.08426   0.05274   0.08167
H          H       0.19692   0.42172   0.04926   0.09816
H          H       0.05161   0.67214   0.30769   0.09617
H          H       0.94720   0.32855   0.30637   0.09720
H          H       0.30654   0.57503   0.56061   0.09634
H          H       0.19422   0.92255   0.56056   0.09642
H          H       0.60300   0.20401   0.93761   0.07037
H          H       0.39373   0.79455   0.93623   0.06856
H          H       0.86284   0.04554   0.18746   0.06779
H          H       0.65487   0.45558   0.18161   0.07255
H          H       0.61008   0.70639   0.43754   0.06827
H          H       0.39296   0.29578   0.42867   0.06692
H          H       0.85875   0.54655   0.68808   0.06842
H          H       0.64580   0.95229   0.66993   0.07022
H          H       0.10545   0.20318   0.42932   0.06744
H          H       0.88213   0.79616   0.43137   0.06868
H          H       0.34955   0.04493   0.68105   0.07425
H          H       0.14335   0.45108   0.66740   0.06860
H          H       0.11150   0.70460   0.93352   0.07345
H          H       0.89264   0.29779   0.92384   0.07006
H          H       0.36137   0.54572   0.18002   0.06734
H          H       0.14872   0.95335   0.17937   0.07004
H          H       0.55365   0.13420   0.42218   0.10010
H          H       0.45225   0.86502   0.42428   0.10119
H          H       0.80360   0.11446   0.68329   0.10040
H          H       0.69721   0.38096   0.65693   0.08296
H          H       0.55071   0.63453   0.91644   0.09752
H          H       0.45696   0.36536   0.91339   0.10045
H          H       0.79978   0.61670   0.18060   0.10308
H          H       0.69869   0.88295   0.15682   0.09746
H          H       0.05419   0.13474   0.90842   0.09598
H          H       0.95130   0.86754   0.91698   0.10048
H          H       0.31301   0.11994   0.14937   0.07949
H          H       0.19513   0.38280   0.15781   0.09625
H          H       0.04958   0.63305   0.41449   0.09920
H          H       0.95297   0.36899   0.40874   0.09840
H          H       0.29717   0.61513   0.66690   0.10078
H          H       0.19531   0.88187   0.66825   0.09912
H          H       0.62741   0.21148   0.71539   0.10542
H          H       0.36765   0.78766   0.72273   0.11003
H          H       0.87676   0.03837   0.96992   0.10877
H          H       0.62948   0.46257   0.95542   0.10688
H          H       0.62214   0.71340   0.22441   0.10754
H          H       0.37258   0.28878   0.21850   0.10653
H          H       0.88732   0.53905   0.47229   0.10948
H          H       0.62826   0.95905   0.45035   0.10747
H          H       0.12832   0.20972   0.21170   0.10837
H          H       0.86949   0.78938   0.21436   0.10919
H          H       0.38020   0.03830   0.46289   0.10822
H          H       0.13198   0.45789   0.46359   0.10862
H          H       0.12887   0.71071   0.70646   0.10809
H          H       0.87172   0.29125   0.71232   0.10762
H          H       0.38257   0.53873   0.96808   0.10777
H          H       0.12042   0.96146   0.96273   0.10936
H          H       0.57817   0.09549   0.53597   0.10228
H          H       0.42971   0.90175   0.53452   0.10261
H          H       0.82435   0.15228   0.79341   0.10376
H          H       0.67810   0.34399   0.76356   0.10512
H          H       0.57111   0.59769   0.02886   0.10295
H          H       0.44353   0.40249   0.02229   0.10279
H          H       0.82512   0.65483   0.29301   0.10270
H          H       0.68412   0.84533   0.26946   0.10303
H          H       0.07568   0.09702   0.02711   0.10132
H          H       0.92833   0.90378   0.02592   0.10144
H          H       0.33838   0.15585   0.26647   0.10485
H          H       0.17462   0.34785   0.27558   0.10282
H          H       0.06584   0.59592   0.52629   0.10256
H          H       0.93156   0.40635   0.52088   0.10121
H          H       0.30965   0.65369   0.77808   0.10295
H          H       0.18012   0.84361   0.77560   0.10324
H          H       0.66721   0.14965   0.47233   0.09745
H          H       0.33079   0.84958   0.47933   0.09603
H          H       0.91626   0.09976   0.72656   0.09616
H          H       0.59115   0.39972   0.71877   0.09544
H          H       0.66335   0.65179   0.97701   0.09616
H          H       0.33112   0.34991   0.97166   0.09867
H          H       0.91611   0.60028   0.22472   0.09627
H          H       0.58258   0.89694   0.20924   0.09746
H          H       0.16269   0.14691   0.97027   0.09508
H          H       0.82691   0.85130   0.97462   0.09708
H          H       0.41662   0.10090   0.22608   0.09483
H          H       0.07393   0.39883   0.21414   0.09751
H          H       0.16340   0.64640   0.47172   0.09523
H          H       0.83504   0.35326   0.46585   0.09796
H          H       0.41194   0.60057   0.72132   0.09375
H          H       0.08419   0.90013   0.71445   0.09617
H          H       0.64741   0.11964   0.64178   0.12876
H          H       0.34275   0.87946   0.65260   0.12915
H          H       0.90130   0.12992   0.89998   0.12798
H          H       0.60862   0.37054   0.89143   0.12252
H          H       0.64668   0.62172   0.14629   0.12774
H          H       0.34909   0.38054   0.14435   0.13175
H          H       0.89102   0.63056   0.39266   0.12478
H          H       0.59460   0.86767   0.38291   0.12838
H          H       0.14778   0.11787   0.14396   0.13105
H          H       0.84527   0.88112   0.14531   0.12826
H          H       0.40200   0.13025   0.40311   0.12412
H          H       0.08509   0.36764   0.38080   0.12837
H          H       0.14483   0.61812   0.64833   0.12839
H          H       0.85329   0.38289   0.63996   0.13207
H          H       0.39397   0.63054   0.89354   0.12952
H          H       0.10032   0.86973   0.88427   0.12929
H          H       0.64520   0.02854   0.34496   0.09964
H          H       0.35910   0.96937   0.35338   0.09979
H          H       0.89760   0.21832   0.60872   0.09751
H          H       0.60392   0.27684   0.58200   0.09877
H          H       0.64767   0.53052   0.85056   0.09788
H          H       0.35736   0.46927   0.85665   0.09692
H          H       0.89029   0.72061   0.10340   0.09761
H          H       0.58917   0.77995   0.10319   0.09643
H          H       0.14495   0.02956   0.84993   0.09656
H          H       0.85168   0.97162   0.84888   0.09932
H          H       0.38802   0.22600   0.09255   0.10166
H          H       0.10266   0.27863   0.11291   0.09844
H          H       0.15312   0.52961   0.35593   0.09715
H          H       0.82783   0.47018   0.35528   0.09783
H          H       0.38824   0.72025   0.60238   0.09907
H          H       0.08930   0.77924   0.60071   0.09767
H          H       0.65597   0.05225   0.15369   0.12178
H          H       0.33454   0.94513   0.16453   0.12340
H          H       0.91582   0.19450   0.41861   0.12449
H          H       0.58051   0.30184   0.39169   0.13025
H          H       0.66620   0.55374   0.65971   0.12155
H          H       0.33857   0.44677   0.66189   0.12309
H          H       0.90590   0.69678   0.91022   0.12381
H          H       0.57241   0.80257   0.90961   0.12375
H          H       0.16290   0.05232   0.65275   0.12182
H          H       0.83486   0.94759   0.65678   0.12115
H          H       0.40814   0.20346   0.89766   0.12747
H          H       0.08029   0.30087   0.91266   0.12278
H          H       0.17200   0.55198   0.16565   0.12232
H          H       0.81673   0.44684   0.15919   0.12302
H          H       0.40698   0.69606   0.41097   0.12285
H          H       0.07634   0.80270   0.40342   0.12386
H          H       0.62320   0.14254   0.95011   0.29595
H          H       0.37875   0.85756   0.95462   0.30262
H          H       0.86498   0.10782   0.20383   0.30113
H          H       0.64135   0.39528   0.19794   0.28149
H          H       0.61141   0.64454   0.45151   0.29470
H          H       0.38298   0.35871   0.44777   0.30242
H          H       0.86090   0.60962   0.69898   0.30553
H          H       0.63007   0.89081   0.68629   0.29391
H          H       0.12422   0.14049   0.44946   0.30352
H          H       0.88492   0.85912   0.44836   0.30327
H          H       0.36386   0.10605   0.70166   0.28010
H          H       0.11968   0.38762   0.68836   0.30862
H          H       0.11655   0.64378   0.94973   0.28700
H          H       0.88414   0.36023   0.94181   0.29870
H          H       0.37356   0.60892   0.19896   0.30404
H          H       0.13371   0.89078   0.18937   0.30051
H          H       0.59413   0.12491   0.16236   0.25377
H          H       0.40267   0.87040   0.16659   0.25837
H          H       0.83647   0.12167   0.41999   0.25698
H          H       0.63745   0.36567   0.38187   0.29304
H          H       0.60093   0.62952   0.66009   0.26348
H          H       0.40790   0.37142   0.65598   0.25890
H          H       0.84279   0.62268   0.92051   0.25597
H          H       0.65541   0.87630   0.89777   0.26355
H          H       0.09340   0.12789   0.64778   0.26124
H          H       0.90637   0.87215   0.65703   0.26133
H          H       0.36233   0.13884   0.86962   0.30380
H          H       0.14259   0.37654   0.90273   0.26170
H          H       0.09368   0.62576   0.15563   0.26293
H          H       0.89850   0.37405   0.15433   0.25982
H          H       0.34753   0.62099   0.41119   0.25940
H          H       0.15847   0.87647   0.40472   0.26128
H          H       0.59539   0.23001   0.52219   0.09874
H          H       0.41689   0.77232   0.49317   0.10378
H          H       0.83613   0.02028   0.75888   0.10266
H          H       0.66700   0.47935   0.76185   0.10096
H          H       0.58845   0.73247   0.01707   0.09987
H          H       0.41558   0.27256  -0.00126   0.10267
H          H       0.84393   0.52214   0.25706   0.10186
H          H       0.66748   0.97571   0.24820   0.10165
H          H       0.08207   0.22593   0.00041   0.10292
H          H       0.91044   0.77285   0.00862   0.10363
H          H       0.33869   0.02182   0.25089   0.10224
H          H       0.16468   0.47681   0.25850   0.10304
H          H       0.09079   0.72715   0.51711   0.09948
H          H       0.91136   0.27263   0.50634   0.10318
H          H       0.34681   0.51958   0.75961   0.10219
H          H       0.16770   0.97812   0.76113   0.10184
H          H       0.74860   0.17385   0.41484   0.10425
H          H       0.24365   0.82409   0.43586   0.09664
H          H       0.00306   0.07266   0.67855   0.09983
H          H       0.50624   0.42576   0.65816   0.10352
H          H       0.74516   0.67614   0.92647   0.10275
H          H       0.24429   0.32458   0.92342   0.10216
H          H       0.01113   0.57402   0.18155   0.09868
H          H       0.50009   0.92425   0.15282   0.10689
H          H       0.24368   0.17187   0.90544   0.10114
H          H       0.73977   0.82442   0.92684   0.09821
H          H       0.50054   0.07555   0.16734   0.09820
H          H       0.99595   0.42576   0.17027   0.10081
H          H       0.24279   0.67197   0.39209   0.10791
H          H       0.75173   0.32736   0.40880   0.09928
H          H       0.49662   0.57672   0.65946   0.10502
H          H       0.00204   0.92673   0.65693   0.10479
H          H       0.78676   0.19965   0.24513   0.10367
H          H       0.20489   0.80105   0.25516   0.10374
H          H       0.04041   0.04694   0.50663   0.09935
H          H       0.46970   0.45229   0.48857   0.09974
H          H       0.78239   0.70031   0.75088   0.10161
H          H       0.20813   0.29991   0.74681   0.10296
H          H       0.04805   0.54932   0.00467   0.10237
H          H       0.46159   0.95176   0.98867   0.10071
H          H       0.28282   0.19812   0.73895   0.09906
H          H       0.70484   0.79919   0.74954   0.10089
H          H       0.53561   0.05165   0.98832   0.10178
H          H       0.96215   0.45093   0.99318   0.10292
H          H       0.27939   0.69966   0.23187   0.10118
H          H       0.71197   0.30112   0.23999   0.09955
H          H       0.53385   0.55194   0.48358   0.10192
H          H       0.96831   0.95384   0.48844   0.09896
H          H       0.62947   0.25552   0.34255   0.09204
H          H       0.37753   0.74819   0.31059   0.09538
H          H       0.87402   0.99442   0.58513   0.09540
H          H       0.63067   0.50599   0.58637   0.09577
H          H       0.62645   0.75711   0.83940   0.09346
H          H       0.37907   0.24734   0.81844   0.09338
H          H       0.87781   0.49741   0.07423   0.09449
H          H       0.62917   0.00356   0.08141   0.09625
H          H       0.12057   0.25276   0.83030   0.09595
H          H       0.87235   0.74624   0.83369   0.09642
H          H       0.37126   0.99789   0.06400   0.09488
H          H       0.12874   0.50329   0.08437   0.09600
H          H       0.12473   0.75494   0.34899   0.09497
H          H       0.87070   0.24561   0.33830   0.09691
H          H       0.38228   0.49501   0.57905   0.09561
H          H       0.13836   0.00439   0.58118   0.09658
H          H       0.51891   0.07350   0.63343   0.10192
H          H       0.48281   0.92472   0.64755   0.10306
H          H       0.76821   0.17441   0.89907   0.10295
H          H       0.72880   0.32251   0.88026   0.10348
H          H       0.52087   0.57498   0.13790   0.10145
H          H       0.48854   0.42346   0.14935   0.10524
H          H       0.76835   0.67570   0.39523   0.10453
H          H       0.72460   0.82524   0.39398   0.10318
H          H       0.02658   0.07650   0.14246   0.10282
H          H       0.97843   0.92457   0.14025   0.10365
H          H       0.28304   0.17596   0.38407   0.10583
H          H       0.22543   0.32654   0.40066   0.10613
H          H       0.02945   0.57547   0.65890   0.10564
H          H       0.98088   0.42751   0.62555   0.09714
H          H       0.26377   0.67511   0.89747   0.10201
H          H       0.22968   0.82315   0.88246   0.10085
H          H       0.65510   0.01171   0.52737   0.09649
H          H       0.33691   0.98359   0.53922   0.09760
H          H       0.91188   0.23348   0.79784   0.09715
H          H       0.59787   0.26038   0.76545   0.09626
H          H       0.66466   0.51562   0.03115   0.09753
H          H       0.34958   0.48380   0.03360   0.09565
H          H       0.90716   0.73632   0.29446   0.09809
H          H       0.59129   0.76396   0.27936   0.09542
H          H       0.15534   0.01371   0.02569   0.09696
H          H       0.83838   0.98591   0.04332   0.09716
H          H       0.40860   0.24027   0.28584   0.09756
H          H       0.08787   0.26594   0.29027   0.09701
H          H       0.14613   0.51159   0.51632   0.09450
H          H       0.82434   0.48557   0.55613   0.09862
H          H       0.40309   0.73475   0.78672   0.09694
H          H       0.08970   0.76245   0.78014   0.09713
H          H       0.61899   0.98907   0.71031   0.07702
H          H       0.37130   0.00773   0.72124   0.07755
H          H       0.87358   0.25774   0.97813   0.07897
H          H       0.63229   0.23817   0.95051   0.07518
H          H       0.62891   0.49159   0.21109   0.07766
H          H       0.38352   0.50760   0.21698   0.07738
H          H       0.86818   0.75958   0.47681   0.07620
H          H       0.62578   0.74120   0.46555   0.07555
H          H       0.11849   0.99061   0.20595   0.07656
H          H       0.87613   0.00831   0.22635   0.07651
H          H       0.37085   0.26115   0.47303   0.07619
H          H       0.12460   0.24248   0.47083   0.07729
H          H       0.11200   0.48763   0.69362   0.07409
H          H       0.86766   0.50790   0.73958   0.07844
H          H       0.37010   0.75836   0.97092   0.07500
H          H       0.12491   0.74058   0.96715   0.07657
H          H       0.48603   0.05174   0.81621   0.08712
H          H       0.51619   0.94863   0.82729   0.08066
H          H       0.73553   0.19743   0.08071   0.08347
H          H       0.75675   0.30137   0.06744   0.08591
H          H       0.48697   0.55179   0.31621   0.08349
H          H       0.52170   0.44675   0.32754   0.08618
H          H       0.73502   0.69787   0.57787   0.08396
H          H       0.75784   0.80311   0.57521   0.08567
H          H       0.99225   0.05398   0.32319   0.08507
H          H       0.01496   0.94642   0.32234   0.08514
H          H       0.24474   0.19673   0.56607   0.08940
H          H       0.26171   0.30331   0.57916   0.08596
H          H      -0.00074   0.55214   0.83605   0.08634
H          H       0.01557   0.44790   0.81287   0.08264
H          H       0.23251   0.69795   0.07675   0.08200
H          H       0.26022   0.80212   0.06933   0.08739
C          C       0.60813   0.17768   0.13951  -0.06184
C          C       0.39619   0.81939   0.14304  -0.06561
C          C       0.85410   0.07038   0.39360  -0.06172
C          C       0.65975   0.42860   0.38600  -0.05985
C          C       0.60335   0.68095   0.64246  -0.06463
C          C       0.39877   0.32011   0.63549  -0.06389
C          C       0.85108   0.57143   0.89121  -0.06123
C          C       0.64465   0.92694   0.87526  -0.06221
C          C       0.10094   0.17940   0.63580  -0.06929
C          C       0.89490   0.82068   0.63769  -0.06232
C          C       0.34908   0.07332   0.88783  -0.05831
C          C       0.14058   0.42795   0.87653  -0.06397
C          C       0.10564   0.67747   0.13535  -0.06364
C          C       0.89169   0.32238   0.13228  -0.06323
C          C       0.35922   0.56995   0.38684  -0.06878
C          C       0.14660   0.92768   0.38230  -0.06243
C          C       0.55256   0.16351   0.21435  -0.04936
C          C       0.44990   0.83370   0.22339  -0.04941
C          C       0.80160   0.08361   0.48188  -0.04554
C          C       0.70502   0.41063   0.46471  -0.05552
C          C       0.55401   0.66611   0.72707  -0.04442
C          C       0.45202   0.33436   0.71620  -0.04777
C          C       0.79962   0.58543   0.97735  -0.04740
C          C       0.69567   0.91328   0.96368  -0.04688
C          C       0.04653   0.16411   0.70826  -0.05103
C          C       0.94807   0.83497   0.72108  -0.04567
C          C       0.29907   0.09126   0.95836  -0.05260
C          C       0.19277   0.41304   0.95796  -0.04592
C          C       0.05165   0.66351   0.21573  -0.04647
C          C       0.94425   0.33704   0.21453  -0.04582
C          C       0.30613   0.58399   0.46983  -0.04560
C          C       0.19748   0.91355   0.46971  -0.04561
C          C       0.61043   0.18376   0.92267   0.08964
C          C       0.38775   0.81501   0.92628   0.08900
C          C       0.86043   0.06598   0.17622   0.09133
C          C       0.64933   0.43530   0.16746   0.08550
C          C       0.60830   0.68593   0.42554   0.08724
C          C       0.38913   0.31625   0.41944   0.08702
C          C       0.86034   0.56700   0.67531   0.09022
C          C       0.64287   0.93187   0.65749   0.09168
C          C       0.11322   0.18283   0.41979   0.08702
C          C       0.88440   0.81668   0.42137   0.08903
C          C       0.35708   0.06526   0.66961   0.08508
C          C       0.13643   0.43060   0.66117   0.08779
C          C       0.11185   0.68425   0.91749   0.09108
C          C       0.88839   0.31828   0.91472   0.08789
C          C       0.36575   0.56616   0.17074   0.08944
C          C       0.14223   0.93301   0.16614   0.08866
C          C       0.57399   0.12506   0.33897   0.09084
C          C       0.42946   0.87318   0.34080   0.09421
C          C       0.82070   0.12321   0.59776   0.09435
C          C       0.67506   0.37321   0.57119   0.07842
C          C       0.57471   0.62623   0.83446   0.09341
C          C       0.43507   0.37402   0.83025   0.09220
C          C       0.82106   0.62481   0.09609   0.09165
C          C       0.67762   0.87380   0.07465   0.09547
C          C       0.07475   0.12554   0.82600   0.09135
C          C       0.92797   0.87543   0.83314   0.09354
C          C       0.33059   0.12864   0.06335   0.07832
C          C       0.17128   0.37433   0.07622   0.09602
C          C       0.07115   0.62430   0.33159   0.09158
C          C       0.92729   0.37711   0.32759   0.09289
C          C       0.31950   0.62395   0.58529   0.09423
C          C       0.17639   0.87361   0.58219   0.09111
C          C       0.62237   0.17482   0.79842  -0.08887
C          C       0.37533   0.82450   0.80358  -0.08447
C          C       0.87087   0.07512   0.05228  -0.08552
C          C       0.63547   0.42609   0.04381  -0.08473
C          C       0.61693   0.67655   0.30167  -0.08335
C          C       0.37746   0.32570   0.29692  -0.08577
C          C       0.87305   0.57597   0.55144  -0.08354
C          C       0.63060   0.92248   0.53398  -0.08419
C          C       0.12518   0.17330   0.29656  -0.08484
C          C       0.87482   0.82620   0.29814  -0.08503
C          C       0.37066   0.07472   0.54718  -0.08307
C          C       0.12570   0.42101   0.53895  -0.08088
C          C       0.12195   0.67470   0.79360  -0.08753
C          C       0.87941   0.32787   0.79142  -0.08401
C          C       0.37587   0.57557   0.04779  -0.08529
C          C       0.12917   0.92427   0.04192  -0.08234
C          C       0.63109   0.19138   0.69907  -0.14022
C          C       0.36662   0.80773   0.70383  -0.14314
C          C       0.88028   0.05838   0.95271  -0.13915
C          C       0.62609   0.44234   0.94271  -0.14125
C          C       0.62463   0.69341   0.20334  -0.14147
C          C       0.36890   0.30875   0.19807  -0.14365
C          C       0.88725   0.55908   0.45359  -0.14249
C          C       0.62312   0.93898   0.43368  -0.13911
C          C       0.13070   0.18960   0.19487  -0.14334
C          C       0.86595   0.80951   0.19834  -0.14125
C          C       0.38154   0.05840   0.44647  -0.14368
C          C       0.12196   0.43827   0.44201  -0.13870
C          C       0.13144   0.69050   0.69137  -0.14010
C          C       0.87062   0.31120   0.69176  -0.14366
C          C       0.38465   0.55873   0.94835  -0.13908
C          C       0.11916   0.94133   0.94421  -0.14293
C          C       0.59827   0.09971   0.34208  -0.11253
C          C       0.40347   0.89819   0.34513  -0.11530
C          C       0.84492   0.14835   0.60014  -0.11423
C          C       0.64929   0.34759   0.57583  -0.09072
C          C       0.60078   0.60133   0.83996  -0.11265
C          C       0.41288   0.39937   0.83352  -0.11391
C          C       0.84599   0.64990   0.09765  -0.11431
C          C       0.65162   0.84902   0.08168  -0.11426
C          C       0.10115   0.10064   0.83339  -0.11241
C          C       0.90280   0.90061   0.83639  -0.11305
C          C       0.35605   0.15431   0.07357  -0.08802
C          C       0.14701   0.34936   0.08556  -0.11599
C          C       0.09773   0.59943   0.33856  -0.11381
C          C       0.90160   0.40212   0.33186  -0.11415
C          C       0.34095   0.64935   0.59002  -0.11313
C          C       0.15213   0.84852   0.58424  -0.11296
C          C       0.59451   0.08573   0.45233  -0.15176
C          C       0.41018   0.91209   0.45522  -0.15187
C          C       0.84128   0.16212   0.71119  -0.14906
C          C       0.65744   0.33379   0.68431  -0.14752
C          C       0.59339   0.58766   0.95034  -0.15164
C          C       0.42167   0.41281   0.94456  -0.14936
C          C       0.84184   0.66390   0.20840  -0.15334
C          C       0.65944   0.83554   0.19252  -0.14687
C          C       0.09521   0.08728   0.94561  -0.15107
C          C       0.90811   0.91429   0.94748  -0.15284
C          C       0.35175   0.16703   0.18663  -0.15151
C          C       0.15611   0.33662   0.19805  -0.14964
C          C       0.08955   0.58591   0.44910  -0.14704
C          C       0.90770   0.41590   0.44258  -0.15028
C          C       0.33183   0.66341   0.69956  -0.15299
C          C       0.15831   0.83454   0.69404  -0.15285
C          C       0.64892   0.18274   0.58193   0.02604
C          C       0.35102   0.81638   0.58562   0.02918
C          C       0.89704   0.06665   0.83478   0.02676
C          C       0.60852   0.43336   0.82579   0.02686
C          C       0.64160   0.68498   0.08534   0.02811
C          C       0.35114   0.31714   0.08034   0.02857
C          C       0.90340   0.56734   0.33517   0.02777
C          C       0.60453   0.93045   0.31630   0.02523
C          C       0.14461   0.18072   0.07602   0.02650
C          C       0.84865   0.81808   0.08090   0.02860
C          C       0.39851   0.06732   0.32982   0.02848
C          C       0.10211   0.43082   0.32411   0.03213
C          C       0.14665   0.68084   0.57435   0.02578
C          C       0.85458   0.31960   0.57306   0.02591
C          C       0.39948   0.56711   0.82967   0.02706
C          C       0.10317   0.93303   0.82549   0.02763
C          C       0.65397   0.15656   0.56352  -0.11138
C          C       0.34391   0.84258   0.57023  -0.11145
C          C       0.90390   0.09285   0.81794  -0.11088
C          C       0.60317   0.40713   0.80973  -0.10770
C          C       0.64872   0.65877   0.06759  -0.11200
C          C       0.34472   0.34335   0.06341  -0.11286
C          C       0.90450   0.59349   0.31649  -0.11338
C          C       0.59580   0.90430   0.29993  -0.10836
C          C       0.15085   0.15446   0.06087  -0.11169
C          C       0.84182   0.84423   0.06476  -0.11090
C          C       0.40395   0.09360   0.31624  -0.11001
C          C       0.08971   0.40499   0.30529  -0.11247
C          C       0.15119   0.65445   0.56124  -0.11175
C          C       0.84848   0.34588   0.55629  -0.11165
C          C       0.40191   0.59341   0.81289  -0.11197
C          C       0.09698   0.90691   0.80617  -0.11127
C          C       0.64415   0.13973   0.65799  -0.22239
C          C       0.35082   0.85946   0.66622  -0.22145
C          C       0.89491   0.10985   0.91366  -0.22444
C          C       0.61261   0.39063   0.90638  -0.22654
C          C       0.64062   0.64174   0.16211  -0.22067
C          C       0.35400   0.36044   0.15845  -0.21835
C          C       0.89040   0.61054   0.41000  -0.22378
C          C       0.60262   0.88763   0.39660  -0.22302
C          C       0.14445   0.13800   0.15805  -0.21507
C          C       0.85175   0.86112   0.16026  -0.22461
C          C       0.39495   0.11015   0.41344  -0.22667
C          C       0.09560   0.38738   0.39800  -0.22495
C          C       0.14105   0.63839   0.65902  -0.22477
C          C       0.85776   0.36273   0.65244  -0.21851
C          C       0.39222   0.61040   0.90827  -0.22042
C          C       0.10609   0.88974   0.90000  -0.22290
C          C       0.63180   0.14854   0.77806   0.30648
C          C       0.36636   0.85082   0.78481   0.30074
C          C       0.87885   0.10132   0.03251   0.30452
C          C       0.62682   0.39966   0.02574   0.30526
C          C       0.62576   0.65023   0.28174   0.30218
C          C       0.36909   0.35198   0.27780   0.30006
C          C       0.87537   0.60228   0.52944   0.30241
C          C       0.61817   0.89635   0.51563   0.30069
C          C       0.13364   0.14703   0.27794   0.30244
C          C       0.86835   0.85255   0.27883   0.30327
C          C       0.37880   0.10118   0.53108   0.30244
C          C       0.11194   0.39514   0.51794   0.30019
C          C       0.12737   0.64813   0.77693   0.30527
C          C       0.87235   0.35414   0.77176   0.30179
C          C       0.38055   0.60188   0.02809   0.30266
C          C       0.12133   0.89801   0.01974   0.30093
C          C       0.60947   0.06011   0.45702   0.01645
C          C       0.39390   0.93754   0.46286   0.01260
C          C       0.85741   0.18750   0.71727   0.01151
C          C       0.64201   0.30812   0.69121   0.02335
C          C       0.61134   0.56236   0.95879   0.01224
C          C       0.40303   0.43790   0.95672   0.01229
C          C       0.85656   0.68934   0.21372   0.01180
C          C       0.63859   0.81072   0.20442   0.01290
C          C       0.11073   0.06184   0.95445   0.01503
C          C       0.89087   0.93966   0.95755   0.01174
C          C       0.36352   0.19288   0.19886   0.02598
C          C       0.14055   0.31134   0.21048   0.01144
C          C       0.10838   0.56075   0.45933   0.01323
C          C       0.88392   0.44055   0.45552   0.01571
C          C       0.34887   0.68869   0.70905   0.01370
C          C       0.13919   0.80950   0.70137   0.01288
C          C       0.63367   0.04858   0.34619  -0.08960
C          C       0.36728   0.94911   0.35328  -0.09125
C          C       0.88472   0.19850   0.60792  -0.09001
C          C       0.61405   0.29690   0.58279  -0.09471
C          C       0.63823   0.55069   0.84984  -0.09166
C          C       0.37220   0.44951   0.85041  -0.08744
C          C       0.88041   0.70061   0.10277  -0.08873
C          C       0.60561   0.79948   0.09863  -0.08767
C          C       0.13587   0.04969   0.84539  -0.08466
C          C       0.86372   0.95152   0.84841  -0.08856
C          C       0.38358   0.20568   0.09113  -0.09753
C          C       0.11285   0.29870   0.10399  -0.08828
C          C       0.13937   0.54943   0.35276  -0.09088
C          C       0.84914   0.45117   0.34973  -0.08628
C          C       0.37671   0.70026   0.60113  -0.08971
C          C       0.10724   0.79859   0.59416  -0.08704
C          C       0.64035   0.06163   0.23822  -0.22118
C          C       0.35503   0.93585   0.24638  -0.22707
C          C       0.89398   0.18544   0.49963  -0.22633
C          C       0.60193   0.31038   0.47514  -0.21905
C          C       0.64849   0.56348   0.74205  -0.22362
C          C       0.36161   0.43706   0.74055  -0.22803
C          C       0.88852   0.68762   0.99402  -0.22501
C          C       0.59537   0.81203   0.98944  -0.22509
C          C       0.14565   0.06201   0.73595  -0.22371
C          C       0.85509   0.93852   0.73938  -0.22901
C          C       0.39434   0.19322   0.98017  -0.21626
C          C       0.10018   0.31076   0.99371  -0.22859
C          C       0.15065   0.56203   0.24467  -0.22446
C          C       0.84199   0.43845   0.23969  -0.22341
C          C       0.38726   0.68719   0.49354  -0.22323
C          C       0.09934   0.81144   0.48521  -0.22525
C          C       0.62221   0.08772   0.22839   0.32376
C          C       0.37421   0.90970   0.23482   0.33064
C          C       0.87047   0.15992   0.48728   0.32841
C          C       0.62037   0.33586   0.46920   0.29392
C          C       0.62982   0.58960   0.72965   0.33307
C          C       0.38214   0.41113   0.72434   0.32992
C          C       0.87026   0.66156   0.98341   0.32647
C          C       0.62036   0.83735   0.97265   0.33357
C          C       0.12787   0.08822   0.72222   0.33238
C          C       0.87591   0.91250   0.72527   0.33255
C          C       0.38003   0.16747   0.96861   0.29125
C          C       0.11703   0.33702   0.97811   0.33266
C          C       0.12894   0.58780   0.22964   0.32952
C          C       0.86913   0.41335   0.22276   0.33190
C          C       0.36951   0.66114   0.48032   0.33117
C          C       0.12498   0.83678   0.47196   0.33198
C          C       0.63531   0.22295   0.45817  -0.14619
C          C       0.37059   0.77869   0.44083  -0.14619
C          C       0.88007   0.02680   0.70253  -0.14807
C          C       0.62405   0.47330   0.70121  -0.14641
C          C       0.62984   0.72499   0.95728  -0.14402
C          C       0.36996   0.27855   0.94369  -0.14726
C          C       0.88687   0.52865   0.19870  -0.14350
C          C       0.62201   0.97042   0.19143  -0.15093
C          C       0.12696   0.22002   0.94390  -0.14418
C          C       0.86589   0.77875   0.95064  -0.14688
C          C       0.38093   0.02868   0.19222  -0.14203
C          C       0.12189   0.47062   0.19759  -0.14688
C          C       0.13079   0.72082   0.45158  -0.15005
C          C       0.86789   0.27908   0.44745  -0.14461
C          C       0.38714   0.52709   0.69860  -0.14299
C          C       0.12541   0.97239   0.69831  -0.14547
C          C       0.66720   0.19939   0.47940   0.07469
C          C       0.33343   0.80043   0.47794   0.07315
C          C       0.91455   0.04954   0.73121   0.07228
C          C       0.59044   0.45019   0.72286   0.07641
C          C       0.66126   0.70154   0.98300   0.07432
C          C       0.33296   0.30071   0.97512   0.07525
C          C       0.92264   0.55086   0.23013   0.07474
C          C       0.58681   0.94769   0.21455   0.07326
C          C       0.16126   0.19705   0.97007   0.07383
C          C       0.82990   0.80132   0.97773   0.07282
C          C       0.41595   0.05112   0.22313   0.07774
C          C       0.08606   0.44812   0.22231   0.07154
C          C       0.16272   0.69709   0.46841   0.07560
C          C       0.83555   0.30257   0.47030   0.07461
C          C       0.41797   0.55060   0.72416   0.07292
C          C       0.08841   0.95002   0.72165   0.07337
C          C       0.72120   0.19151   0.39875  -0.13746
C          C       0.27422   0.80783   0.40666  -0.13561
C          C       0.97220   0.05614   0.65620  -0.13496
C          C       0.53478   0.44312   0.64331  -0.13556
C          C       0.71687   0.69344   0.90596  -0.13691
C          C       0.27485   0.30787   0.90050  -0.13603
C          C       0.98023   0.55774   0.15567  -0.13749
C          C       0.52923   0.94145   0.13752  -0.13744
C          C       0.21668   0.18970   0.89078  -0.13427
C          C       0.77141   0.80803   0.90333  -0.13695
C          C       0.47106   0.05876   0.14515  -0.13652
C          C       0.02802   0.44185   0.14649  -0.13732
C          C       0.21517   0.68984   0.38335  -0.13887
C          C       0.77940   0.30977   0.39172  -0.13834
C          C       0.47082   0.55889   0.64281  -0.13576
C          C       0.03293   0.94349   0.64102  -0.13417
C          C       0.74195   0.20612   0.30038  -0.07357
C          C       0.25211   0.79435   0.30415  -0.06902
C          C       0.99274   0.04157   0.55643  -0.07698
C          C       0.51450   0.45815   0.54557  -0.07779
C          C       0.73765   0.70727   0.80482  -0.07421
C          C       0.25422   0.29362   0.79980  -0.06855
C          C       0.00048   0.54359   0.05390  -0.07142
C          C       0.50775   0.95717   0.04311  -0.07358
C          C       0.23823   0.20474   0.79391  -0.07520
C          C       0.75167   0.79360   0.80266  -0.07340
C          C       0.49093   0.04496   0.04239  -0.07130
C          C       0.00880   0.45643   0.04646  -0.07176
C          C       0.23553   0.70577   0.28962  -0.07453
C          C       0.75750   0.29475   0.29422  -0.07720
C          C       0.49159   0.54475   0.54152  -0.07286
C          C       0.01491   0.95867   0.54296  -0.07738
C          C       0.70671   0.22881   0.27265  -0.23266
C          C       0.28914   0.77262   0.26596  -0.23314
C          C       0.95583   0.01985   0.52148  -0.22723
C          C       0.55039   0.48048   0.51873  -0.23217
C          C       0.70300   0.72980   0.77298  -0.23329
C          C       0.29149   0.27162   0.76661  -0.23453
C          C       0.96225   0.52213   0.01732  -0.23089
C          C       0.54373   0.97950   0.01627  -0.23073
C          C       0.20445   0.22775   0.76629  -0.22629
C          C       0.78971   0.77175   0.77057  -0.23328
C          C       0.45495   0.02291   0.00902  -0.23998
C          C       0.04653   0.47821   0.01624  -0.23115
C          C       0.20233   0.72912   0.26879  -0.23369
C          C       0.79152   0.27184   0.26690  -0.22936
C          C       0.45900   0.52184   0.51220  -0.23159
C          C       0.05334   0.98034   0.51433  -0.23303
C          C       0.65427   0.23719   0.35623  -0.06821
C          C       0.34862   0.76517   0.33698  -0.06917
C          C       0.90047   0.01229   0.60055  -0.06426
C          C       0.60443   0.48812   0.60092  -0.06460
C          C       0.65034   0.73872   0.85457  -0.06649
C          C       0.34967   0.26443   0.84105  -0.06920
C          C       0.90580   0.51481   0.09416  -0.06989
C          C       0.60089   0.98601   0.09460  -0.06516
C          C       0.14801   0.23493   0.84495  -0.06741
C          C       0.84559   0.76415   0.84964  -0.06454
C          C       0.39943   0.01513   0.08664  -0.06745
C          C       0.10209   0.48540   0.09692  -0.06335
C          C       0.14975   0.73645   0.35450  -0.06319
C          C       0.84601   0.26405   0.34888  -0.06454
C          C       0.40686   0.51320   0.59470  -0.06503
C          C       0.10891   0.98713   0.59570  -0.06403
C          C       0.54491   0.05570   0.65263  -0.13247
C          C       0.45700   0.94271   0.66304  -0.13372
C          C       0.79304   0.19246   0.91487  -0.13256
C          C       0.70474   0.30433   0.89445  -0.13351
C          C       0.54701   0.55714   0.15514  -0.13340
C          C       0.46400   0.44179   0.16157  -0.13508
C          C       0.79324   0.69367   0.41261  -0.13506
C          C       0.70052   0.80706   0.40809  -0.13479
C          C       0.04939   0.05799   0.15663  -0.13314
C          C       0.95470   0.94282   0.15818  -0.13414
C          C       0.30436   0.19444   0.40265  -0.13374
C          C       0.20203   0.30822   0.41502  -0.13242
C          C       0.05118   0.55663   0.66574  -0.13409
C          C       0.95283   0.44461   0.65074  -0.13453
C          C       0.28878   0.69317   0.91163  -0.13511
C          C       0.20326   0.80555   0.90111  -0.13630
C          C       0.59358   0.04549   0.56799   0.07639
C          C       0.40779   0.95204   0.57622   0.07779
C          C       0.84199   0.20204   0.82974   0.07927
C          C       0.65916   0.29389   0.80486   0.07455
C          C       0.59668   0.54774   0.07026   0.07883
C          C       0.41718   0.45171   0.07220   0.07749
C          C       0.84137   0.70369   0.32725   0.08057
C          C       0.65408   0.79686   0.31910   0.07664
C          C       0.09520   0.04761   0.06767   0.07772
C          C       0.90630   0.95330   0.07297   0.07963
C          C       0.34907   0.20592   0.31664   0.07693
C          C       0.15498   0.29809   0.32676   0.07805
C          C       0.09286   0.54620   0.57098   0.07952
C          C       0.89952   0.45433   0.57167   0.07669
C          C       0.33541   0.70287   0.82340   0.07810
C          C       0.15499   0.79536   0.81489   0.07766
C          C       0.61980   0.02110   0.59232  -0.14790
C          C       0.37642   0.97565   0.60207  -0.15123
C          C       0.87171   0.22564   0.85780  -0.15034
C          C       0.63339   0.26966   0.83052  -0.14550
C          C       0.62621   0.52382   0.09478  -0.15124
C          C       0.38744   0.47553   0.09802  -0.14892
C          C       0.86897   0.72761   0.35554  -0.14887
C          C       0.62709   0.77285   0.34515  -0.15009
C          C       0.12002   0.02298   0.09101  -0.14839
C          C       0.87761   0.97703   0.10348  -0.15099
C          C       0.37330   0.23020   0.34731  -0.14744
C          C       0.12620   0.27439   0.35308  -0.15043
C          C       0.11509   0.52105   0.58721  -0.15022
C          C       0.86756   0.47718   0.60995  -0.14742
C          C       0.36520   0.72655   0.85025  -0.15015
C          C       0.12657   0.77164   0.84326  -0.15082
C          C       0.59939   0.00817   0.69754  -0.06397
C          C       0.39591   0.98939   0.70648  -0.06227
C          C       0.85141   0.23916   0.96227  -0.06363
C          C       0.65241   0.25704   0.93833  -0.06319
C          C       0.60624   0.51027   0.19854  -0.06143
C          C       0.40632   0.48895   0.20347  -0.06629
C          C       0.84799   0.74072   0.46104  -0.06379
C          C       0.64673   0.75994   0.45184  -0.06386
C          C       0.09906   0.00978   0.19540  -0.06257
C          C       0.89923   0.98980   0.20957  -0.06569
C          C       0.35147   0.24226   0.45528  -0.06455
C          C       0.14698   0.26102   0.45727  -0.06650
C          C       0.09595   0.50730   0.69052  -0.05953
C          C       0.89112   0.48974   0.71624  -0.06622
C          C       0.34667   0.73994   0.95634  -0.06281
C          C       0.14587   0.75925   0.95140  -0.06313
C          C       0.55226   0.01884   0.78420  -0.23302
C          C       0.44735   0.98038   0.79065  -0.23552
C          C       0.80163   0.22963   0.04620  -0.23582
C          C       0.69701   0.26774   0.02934  -0.22411
C          C       0.55614   0.51977   0.28368  -0.23200
C          C       0.45582   0.47950   0.28982  -0.23513
C          C       0.79937   0.73066   0.54556  -0.23641
C          C       0.69447   0.76997   0.53953  -0.23193
C          C       0.05223   0.02020   0.28377  -0.23212
C          C       0.95049   0.97981   0.29177  -0.23469
C          C       0.30368   0.23114   0.53866  -0.22897
C          C       0.19715   0.27043   0.54206  -0.23537
C          C       0.05414   0.51786   0.78531  -0.23769
C          C       0.94548   0.48013   0.79324  -0.23141
C          C       0.29751   0.73062   0.04227  -0.23253
C          C       0.19344   0.76965   0.03799  -0.23592
C          C       0.52540   0.04289   0.75719  -0.07299
C          C       0.47633   0.95651   0.76575  -0.07440
C          C       0.77405   0.20577   0.01940  -0.07192
C          C       0.72197   0.29188   0.00260  -0.07643
C          C       0.52757   0.54363   0.25766  -0.07478
C          C       0.48304   0.45531   0.26566  -0.06932
C          C       0.77360   0.70659   0.51801  -0.07007
C          C       0.71996   0.79413   0.51360  -0.07095
C          C       0.02908   0.04485   0.26046  -0.07121
C          C       0.97607   0.95559   0.26308  -0.06958
C          C       0.28217   0.20665   0.50873  -0.06853
C          C       0.22285   0.29472   0.51814  -0.06776
C          C       0.03307   0.54296   0.76873  -0.07174
C          C       0.97400   0.45670   0.75779  -0.06931
C          C       0.27049   0.70661   0.01595  -0.07708
C          C       0.22131   0.79330   0.00904  -0.06618
N          N       0.61167   0.16843   0.01474  -0.24156
N          N       0.38994   0.82989   0.02068  -0.25231
N          N       0.85311   0.08090   0.27015  -0.25263
N          N       0.65279   0.41995   0.25969  -0.22970
N          N       0.60306   0.67092   0.51836  -0.24630
N          N       0.39243   0.33101   0.51411  -0.25164
N          N       0.85359   0.58214   0.76845  -0.25311
N          N       0.64604   0.91690   0.75104  -0.24670
N          N       0.11213   0.16831   0.51513  -0.24952
N          N       0.89171   0.83149   0.51540  -0.25544
N          N       0.35590   0.08085   0.76127  -0.22458
N          N       0.13451   0.41626   0.75652  -0.25698
N          N       0.10666   0.66884   0.00917  -0.23580
N          N       0.88867   0.33305   0.00972  -0.24724
N          N       0.36433   0.58090   0.26567  -0.25220
N          N       0.14435   0.91765   0.25828  -0.24981
N          N       0.57454   0.13750   0.23424  -0.17377
N          N       0.42725   0.85978   0.23851  -0.17128
N          N       0.81872   0.11021   0.49420  -0.17079
N          N       0.67408   0.38567   0.46929  -0.23467
N          N       0.57792   0.63994   0.73377  -0.17753
N          N       0.42972   0.36047   0.72891  -0.17660
N          N       0.82190   0.61149   0.99346  -0.16983
N          N       0.67682   0.88683   0.97172  -0.17595
N          N       0.07268   0.13838   0.72216  -0.17250
N          N       0.92588   0.86146   0.73230  -0.17542
N          N       0.32665   0.11693   0.95900  -0.24696
N          N       0.16704   0.38740   0.97362  -0.17511
N          N       0.07170   0.63710   0.22793  -0.17350
N          N       0.92083   0.36321   0.22736  -0.17781
N          N       0.32627   0.61028   0.48420  -0.17395
N          N       0.17680   0.88719   0.48057  -0.17173
O          O       0.63107   0.13214   0.87027  -0.40841
O          O       0.36993   0.86762   0.87645  -0.40342
O          O       0.87292   0.11793   0.12472  -0.40738
O          O       0.63107   0.38369   0.11968  -0.41943
O          O       0.62287   0.63382   0.37442  -0.40339
O          O       0.37355   0.36877   0.36957  -0.40000
O          O       0.86417   0.61928   0.61853  -0.40465
O          O       0.61917   0.88011   0.60910  -0.40482
O          O       0.13202   0.13055   0.37032  -0.40129
O          O       0.87609   0.86925   0.37022  -0.40457
O          O       0.37240   0.11750   0.62416  -0.41814
O          O       0.11219   0.37811   0.60856  -0.40388
O          O       0.12188   0.63234   0.87081  -0.41307
O          O       0.87804   0.37077   0.86380  -0.39872
O          O       0.37482   0.61882   0.11920  -0.40476
O          O       0.12686   0.88093   0.10931  -0.40430
O          O       0.62414   0.09933   0.12502  -0.46779
O          O       0.36931   0.89752   0.13359  -0.47983
O          O       0.86962   0.14830   0.38385  -0.47730
O          O       0.61335   0.34855   0.36395  -0.40583
O          O       0.63498   0.60150   0.62846  -0.47794
O          O       0.37494   0.39913   0.62285  -0.47922
O          O       0.87215   0.64975   0.88060  -0.47412
O          O       0.61787   0.84864   0.86948  -0.47769
O          O       0.13214   0.09956   0.61944  -0.48019
O          O       0.87459   0.90077   0.62265  -0.48180
O          O       0.38481   0.15613   0.85847  -0.40660
O          O       0.10882   0.34893   0.87718  -0.48246
O          O       0.13346   0.59956   0.12753  -0.47432
O          O       0.86556   0.40181   0.11955  -0.47586
O          O       0.37627   0.64947   0.37786  -0.48361
O          O       0.12527   0.84818   0.36897  -0.47804

