data_crystal

_audit_creation_method 'AiiDA-DDEC plugin'

_cell_length_a        19.54649
_cell_length_b        53.96930
_cell_length_c         9.82125

_cell_angle_alpha     89.92992
_cell_angle_beta     90.19588
_cell_angle_gamma     90.45348

_symmetry_space_group_name_Hall 'P 1'
_symmetry_space_group_name_H-M  'P 1'

loop_
_symmetry_equiv_pos_as_xyz
 'x,y,z'

loop_
_atom_site_label
_atom_site_type_symbol
_atom_site_fract_x
_atom_site_fract_y
_atom_site_fract_z
_atom_site_charge
Zn         Zn      0.65504   0.62904   0.64989   0.77990
Zn         Zn      0.35178   0.36839   0.64942   0.78151
Zn         Zn      0.90536   0.61954   0.89685   0.77908
Zn         Zn      0.59863   0.88051   0.90620   0.78138
Zn         Zn      0.65232   0.13051   0.15593   0.78006
Zn         Zn      0.34256   0.86951   0.14857   0.77649
Zn         Zn      0.90199   0.12076   0.39609   0.77915
Zn         Zn      0.59494   0.37801   0.39607   0.77634
Zn         Zn      0.15175   0.62935   0.14383   0.77794
Zn         Zn      0.84186   0.36948   0.14913   0.77676
Zn         Zn      0.40466   0.62061   0.39998   0.77899
Zn         Zn      0.09205   0.88019   0.39567   0.77774
Zn         Zn      0.15463   0.13061   0.64989   0.77924
Zn         Zn      0.85148   0.87047   0.64821   0.78025
Zn         Zn      0.40519   0.12086   0.89016   0.77776
Zn         Zn      0.09586   0.38036   0.90221   0.78008
H          H       0.03675   0.65020   0.77227   0.08338
H          H       0.96270   0.35079   0.78167   0.08627
H          H       0.28619   0.60118   0.02986   0.08524
H          H       0.21076   0.89883   0.03080   0.08581
H          H       0.03374   0.15096   0.26948   0.08556
H          H       0.96201   0.84974   0.26658   0.08403
H          H       0.29062   0.10286   0.53716   0.08514
H          H       0.21786   0.39730   0.53313   0.08776
H          H       0.53579   0.65061   0.27465   0.08472
H          H       0.46420   0.34746   0.26942   0.08337
H          H       0.78741   0.60008   0.52914   0.08532
H          H       0.71673   0.89873   0.53072   0.08723
H          H       0.53540   0.15112   0.76416   0.08396
H          H       0.46320   0.85116   0.79269   0.08609
H          H       0.78552   0.10209   0.03588   0.08492
H          H       0.70911   0.39830   0.03059   0.08495
H          H       0.00384   0.65374   0.60338   0.09718
H          H       0.99280   0.34723   0.61084   0.09868
H          H       0.25775   0.59735   0.85772   0.09827
H          H       0.23926   0.90249   0.85899   0.09905
H          H       0.00018   0.15443   0.10099   0.09773
H          H       0.99527   0.84634   0.09809   0.09904
H          H       0.26196   0.09816   0.36618   0.09728
H          H       0.24640   0.40098   0.36127   0.09834
H          H       0.50313   0.65422   0.10548   0.09781
H          H       0.49658   0.34432   0.10041   0.09795
H          H       0.75544   0.59599   0.35953   0.09793
H          H       0.74537   0.90258   0.35942   0.09880
H          H       0.50247   0.15459   0.59486   0.09886
H          H       0.49095   0.84725   0.62087   0.09668
H          H       0.75471   0.09779   0.86551   0.09720
H          H       0.73854   0.40219   0.85965   0.09880
H          H       0.89397   0.66789   0.69160   0.08807
H          H       0.10324   0.33198   0.69455   0.08702
H          H       0.14719   0.58099   0.93536   0.08653
H          H       0.35066   0.91831   0.93854   0.08625
H          H       0.89147   0.16944   0.18981   0.08754
H          H       0.10520   0.83217   0.18981   0.08767
H          H       0.15155   0.08202   0.44763   0.08711
H          H       0.35759   0.41670   0.43898   0.08561
H          H       0.39422   0.66931   0.19164   0.08605
H          H       0.60667   0.32986   0.18797   0.08716
H          H       0.64603   0.58030   0.44689   0.08902
H          H       0.85627   0.91843   0.43834   0.08557
H          H       0.39372   0.16988   0.68206   0.08751
H          H       0.60210   0.83193   0.69854   0.08519
H          H       0.64536   0.08177   0.94960   0.08751
H          H       0.84998   0.41742   0.94206   0.08682
H          H       0.95879   0.68582   0.77400   0.08256
H          H       0.03817   0.31449   0.77846   0.08226
H          H       0.21189   0.56418   0.02318   0.08253
H          H       0.28664   0.93531   0.02628   0.08261
H          H       0.95712   0.18680   0.27317   0.08163
H          H       0.04008   0.81403   0.26895   0.08165
H          H       0.21716   0.06549   0.53516   0.08248
H          H       0.29407   0.43384   0.52691   0.08288
H          H       0.45948   0.68660   0.27661   0.08371
H          H       0.54223   0.31198   0.27081   0.08208
H          H       0.71186   0.56330   0.53002   0.08183
H          H       0.79219   0.93561   0.52446   0.08350
H          H       0.45926   0.18691   0.76736   0.08212
H          H       0.53808   0.81474   0.78801   0.08311
H          H       0.71089   0.06491   0.03471   0.08206
H          H       0.78579   0.43492   0.02616   0.08317
H          H       0.97630   0.61725   0.51677   0.08277
H          H       0.02388   0.38274   0.52213   0.08392
H          H       0.22490   0.63290   0.76738   0.08314
H          H       0.27216   0.86709   0.76840   0.08409
H          H       0.97156   0.11797   0.01568   0.08334
H          H       0.02225   0.88324   0.01360   0.08332
H          H       0.22879   0.13313   0.27165   0.08255
H          H       0.27753   0.36547   0.27146   0.08304
H          H       0.47505   0.61766   0.01950   0.08386
H          H       0.52346   0.38128   0.01618   0.08309
H          H       0.72699   0.63205   0.27144   0.08320
H          H       0.77572   0.86664   0.27032   0.08295
H          H       0.47458   0.11789   0.51015   0.08365
H          H       0.52343   0.88242   0.52814   0.08296
H          H       0.72259   0.13279   0.77512   0.08294
H          H       0.76905   0.36610   0.77026   0.08455
H          H       0.91782   0.69198   0.98499   0.07767
H          H       0.08249   0.30780   0.98881   0.07816
H          H       0.16276   0.55679   0.22838   0.07788
H          H       0.33325   0.94207   0.23293   0.07828
H          H       0.91726   0.19305   0.48335   0.07727
H          H       0.08112   0.80770   0.48176   0.07677
H          H       0.17260   0.05885   0.74461   0.07831
H          H       0.34299   0.44100   0.73113   0.07779
H          H       0.40923   0.69333   0.48263   0.07897
H          H       0.58713   0.30548   0.47972   0.07812
H          H       0.67223   0.55689   0.74345   0.07706
H          H       0.83998   0.94294   0.73180   0.07917
H          H       0.41510   0.19337   0.97380   0.07770
H          H       0.58767   0.80803   0.99227   0.07875
H          H       0.66966   0.05833   0.24538   0.07848
H          H       0.83202   0.44166   0.23679   0.07809
H          H       0.95276   0.58291   0.40204   0.10796
H          H       0.04931   0.41731   0.40660   0.10862
H          H       0.19727   0.66645   0.64947   0.10742
H          H       0.29643   0.83286   0.65320   0.10937
H          H       0.94640   0.08379   0.90181   0.10922
H          H       0.04633   0.91821   0.90178   0.10825
H          H       0.20405   0.16727   0.15380   0.10865
H          H       0.30300   0.33157   0.15448   0.10823
H          H       0.45040   0.58304   0.90604   0.10942
H          H       0.54652   0.41604   0.90442   0.10707
H          H       0.70221   0.66611   0.15508   0.10835
H          H       0.80098   0.83228   0.15456   0.10735
H          H       0.45061   0.08322   0.39800   0.10794
H          H       0.54851   0.91631   0.40931   0.10882
H          H       0.69835   0.16685   0.65851   0.10898
H          H       0.79623   0.33225   0.65459   0.10748
H          H       0.88363   0.70202   0.19706   0.10634
H          H       0.12173   0.29770   0.19807   0.10645
H          H       0.12465   0.54622   0.43856   0.10730
H          H       0.37345   0.95231   0.44029   0.10655
H          H       0.88373   0.20324   0.69564   0.10645
H          H       0.11520   0.79770   0.69403   0.10636
H          H       0.13475   0.04867   0.95358   0.10622
H          H       0.37882   0.45171   0.94175   0.10701
H          H       0.37014   0.70315   0.69122   0.10654
H          H       0.62498   0.29555   0.69023   0.10553
H          H       0.63698   0.54691   0.95686   0.10598
H          H       0.87894   0.95341   0.94285   0.10684
H          H       0.37771   0.20359   0.18412   0.10645
H          H       0.62795   0.79776   0.19877   0.10619
H          H       0.63152   0.04787   0.45570   0.10665
H          H       0.86983   0.45168   0.44732   0.10632
H          H       0.81335   0.52665   0.54346   0.10467
H          H       0.19523   0.47162   0.54405   0.10609
H          H       0.06095   0.72249   0.79481   0.10525
H          H       0.43365   0.77684   0.79963   0.10600
H          H       0.81182   0.02664   0.05059   0.10515
H          H       0.18849   0.97323   0.04820   0.10562
H          H       0.05994   0.22163   0.28816   0.10466
H          H       0.44215   0.27598   0.29645   0.10461
H          H       0.31130   0.52708   0.05207   0.10599
H          H       0.68810   0.47144   0.04938   0.10456
H          H       0.56239   0.72148   0.29537   0.10557
H          H       0.94020   0.77698   0.30070   0.10533
H          H       0.31627   0.02616   0.54921   0.10580
H          H       0.69230   0.97185   0.54311   0.10396
H          H       0.55997   0.22265   0.79774   0.10533
H          H       0.93839   0.27776   0.79854   0.10405
H          H       0.80303   0.54866   0.76260   0.12456
H          H       0.20689   0.44901   0.76191   0.12538
H          H       0.05238   0.70062   0.01497   0.12677
H          H       0.44492   0.79926   0.01751   0.12529
H          H       0.80240   0.04886   0.26961   0.12533
H          H       0.19817   0.95045   0.26592   0.12618
H          H       0.04744   0.19913   0.50601   0.12369
H          H       0.45266   0.29796   0.51642   0.12535
H          H       0.30183   0.54953   0.27034   0.12572
H          H       0.69725   0.44916   0.26824   0.12528
H          H       0.55090   0.69912   0.51398   0.12647
H          H       0.95091   0.79956   0.51869   0.12450
H          H       0.30620   0.04886   0.76690   0.12523
H          H       0.70432   0.94998   0.76280   0.12532
H          H       0.54730   0.20026   0.01599   0.12430
H          H       0.94745   0.30006   0.01763   0.12531
H          H       0.85359   0.64795   0.51156   0.09970
H          H       0.14659   0.35124   0.51664   0.10048
H          H       0.10268   0.59961   0.75835   0.10028
H          H       0.39758   0.89913   0.76096   0.10065
H          H       0.85010   0.14931   0.00957   0.09982
H          H       0.14315   0.85156   0.00995   0.09985
H          H       0.10080   0.10258   0.26542   0.10172
H          H       0.39851   0.39865   0.26466   0.09974
H          H       0.35276   0.64981   0.01331   0.10089
H          H       0.64045   0.34898   0.01177   0.09951
H          H       0.60102   0.60148   0.26465   0.10080
H          H       0.89825   0.89999   0.26330   0.10015
H          H       0.35464   0.15005   0.50349   0.10052
H          H       0.64912   0.85062   0.52187   0.10114
H          H       0.60092   0.10151   0.76973   0.10067
H          H       0.89597   0.39763   0.76355   0.10032
H          H       0.87680   0.61450   0.34790   0.11031
H          H       0.12129   0.38486   0.35441   0.10893
H          H       0.12598   0.63344   0.59526   0.11115
H          H       0.37222   0.86522   0.59952   0.10991
H          H       0.87226   0.11563   0.84578   0.11036
H          H       0.11782   0.88505   0.84715   0.11003
H          H       0.12372   0.13622   0.10166   0.11004
H          H       0.37501   0.36472   0.10287   0.11048
H          H       0.38037   0.61630   0.85221   0.10894
H          H       0.61527   0.38251   0.84861   0.11038
H          H       0.62390   0.63479   0.09789   0.11174
H          H       0.87466   0.86626   0.10024   0.11075
H          H       0.37938   0.11638   0.34131   0.11010
H          H       0.62376   0.88451   0.36150   0.10899
H          H       0.62422   0.13527   0.60621   0.10955
H          H       0.87070   0.36415   0.59930   0.10984
H          H       0.91386   0.57183   0.19832   0.11296
H          H       0.09154   0.42653   0.20368   0.11034
H          H       0.15858   0.67691   0.44761   0.11192
H          H       0.33696   0.82277   0.45232   0.11162
H          H       0.90655   0.07312   0.70265   0.11224
H          H       0.08857   0.92852   0.70072   0.11163
H          H       0.16416   0.17699   0.94921   0.11137
H          H       0.34353   0.32243   0.95235   0.11157
H          H       0.41083   0.57246   0.70599   0.11141
H          H       0.58578   0.42672   0.70368   0.11148
H          H       0.66193   0.67627   0.95160   0.11166
H          H       0.84304   0.82198   0.95318   0.11208
H          H       0.41314   0.07206   0.20000   0.11174
H          H       0.58453   0.92621   0.20557   0.11138
H          H       0.65970   0.17687   0.45625   0.11134
H          H       0.83510   0.32281   0.45409   0.11173
H          H       0.88222   0.50303   0.41442   0.10262
H          H       0.12707   0.49617   0.40864   0.10278
H          H       0.12333   0.74591   0.65711   0.10235
H          H       0.36602   0.75325   0.66177   0.10211
H          H       0.87749   0.00347   0.91196   0.10182
H          H       0.12033   0.99748   0.91523   0.10339
H          H       0.13095   0.24621   0.15768   0.10254
H          H       0.37744   0.25272   0.15672   0.10153
H          H       0.37809   0.50310   0.91603   0.10285
H          H       0.62262   0.49564   0.91528   0.10279
H          H       0.63335   0.74539   0.16400   0.10338
H          H       0.87394   0.75284   0.16511   0.10226
H          H       0.37991   0.00295   0.41271   0.10185
H          H       0.62597   0.99554   0.40978   0.10247
H          H       0.63082   0.24644   0.66406   0.10212
H          H       0.87595   0.25368   0.65934   0.10210
H          H       0.93054   0.48038   0.22174   0.09986
H          H       0.07680   0.51804   0.21399   0.09824
H          H       0.17136   0.76855   0.46318   0.10034
H          H       0.31666   0.73131   0.46610   0.09784
H          H       0.92736   0.98180   0.71742   0.09801
H          H       0.07147   0.01997   0.72121   0.10159
H          H       0.18138   0.26857   0.96460   0.10009
H          H       0.32898   0.23075   0.95976   0.09805
H          H       0.42741   0.48104   0.72238   0.09785
H          H       0.57444   0.51831   0.72138   0.10088
H          H       0.68337   0.76772   0.97075   0.10045
H          H       0.82635   0.73041   0.96931   0.09976
H          H       0.42784   0.98054   0.21879   0.09862
H          H       0.57665   0.01793   0.21601   0.10042
H          H       0.68094   0.26832   0.46918   0.09841
H          H       0.82796   0.23109   0.46429   0.09910
H          H       0.96442   0.54926   0.01031   0.10872
H          H       0.03901   0.44838   0.01401   0.10710
H          H       0.20821   0.69962   0.25744   0.10918
H          H       0.28536   0.80086   0.26173   0.10749
H          H       0.95830   0.05153   0.51297   0.10895
H          H       0.03678   0.95100   0.51228   0.10800
H          H       0.21623   0.19933   0.76049   0.10726
H          H       0.29206   0.30045   0.76095   0.10745
H          H       0.46121   0.55050   0.51689   0.10771
H          H       0.53509   0.44938   0.51499   0.10934
H          H       0.71437   0.69851   0.76339   0.10765
H          H       0.79352   0.79955   0.76135   0.11003
H          H       0.46357   0.04969   0.01173   0.10892
H          H       0.53335   0.94865   0.01630   0.10729
H          H       0.71264   0.19864   0.26744   0.10694
H          H       0.78494   0.30013   0.26384   0.10917
H          H       0.94251   0.70641   0.55884   0.10575
H          H       0.06435   0.29453   0.56887   0.10560
H          H       0.18792   0.54378   0.80712   0.10639
H          H       0.31292   0.95497   0.80949   0.10654
H          H       0.94155   0.20881   0.05061   0.10699
H          H       0.05599   0.79389   0.05893   0.10652
H          H       0.18986   0.04531   0.31673   0.10604
H          H       0.31443   0.45409   0.31115   0.10576
H          H       0.43235   0.70564   0.06440   0.10447
H          H       0.56242   0.29264   0.06199   0.10619
H          H       0.69130   0.54200   0.31100   0.10624
H          H       0.81477   0.95570   0.30808   0.10614
H          H       0.44107   0.20781   0.54627   0.10666
H          H       0.56771   0.79558   0.57487   0.10616
H          H       0.68938   0.04444   0.81731   0.10577
H          H       0.81212   0.45430   0.81491   0.10622
H          H       0.74293   0.69502   0.38638   0.09461
H          H       0.25998   0.30331   0.37846   0.09505
H          H       0.98844   0.55122   0.62902   0.09548
H          H       0.51094   0.94759   0.62771   0.09561
H          H       0.74029   0.19385   0.89422   0.09493
H          H       0.25414   0.80408   0.88084   0.09600
H          H       0.99144   0.05526   0.13780   0.09644
H          H       0.51318   0.44809   0.13144   0.09500
H          H       0.23619   0.69904   0.87082   0.09602
H          H       0.75899   0.30096   0.87481   0.09562
H          H       0.49116   0.55595   0.14936   0.09448
H          H       0.01402   0.94918   0.13096   0.09450
H          H       0.24027   0.19685   0.37870   0.09509
H          H       0.76277   0.80111   0.37807   0.09563
H          H       0.49066   0.05370   0.63905   0.09512
H          H       0.00931   0.44573   0.63182   0.09579
H          H       0.69401   0.72352   0.55335   0.10442
H          H       0.31053   0.27440   0.54208   0.10152
H          H       0.94122   0.52249   0.79876   0.10333
H          H       0.55983   0.97592   0.79797   0.10322
H          H       0.69115   0.22207   0.06239   0.10333
H          H       0.30366   0.77561   0.04813   0.10200
H          H       0.94164   0.02640   0.30408   0.10244
H          H       0.56006   0.47693   0.30067   0.10235
H          H       0.18751   0.72764   0.03746   0.10234
H          H       0.80901   0.27291   0.04343   0.10180
H          H       0.44116   0.52674   0.31331   0.10315
H          H       0.06063   0.97837   0.29950   0.10263
H          H       0.19267   0.22498   0.54911   0.10425
H          H       0.81120   0.77199   0.54311   0.10263
H          H       0.44216   0.02397   0.80231   0.10302
H          H       0.05940   0.47451   0.79809   0.10378
H          H       0.89328   0.73548   0.72781   0.10089
H          H       0.11510   0.26522   0.73561   0.10048
H          H       0.14019   0.51472   0.97981   0.10049
H          H       0.36221   0.98378   0.98210   0.10127
H          H       0.89184   0.23722   0.22282   0.10090
H          H       0.10574   0.76491   0.22877   0.10092
H          H       0.13946   0.01636   0.48708   0.10125
H          H       0.36141   0.48354   0.48297   0.10051
H          H       0.38345   0.73475   0.23350   0.10090
H          H       0.61260   0.26405   0.23344   0.10091
H          H       0.64053   0.51312   0.48120   0.10143
H          H       0.86171   0.98545   0.47896   0.10139
H          H       0.39308   0.23619   0.72017   0.10117
H          H       0.61638   0.76596   0.74235   0.10176
H          H       0.64047   0.01443   0.98405   0.10167
H          H       0.86283   0.48303   0.98612   0.10123
C          C       0.99044   0.64900   0.70906  -0.06832
C          C       0.00803   0.35164   0.71607  -0.06985
C          C       0.24140   0.60164   0.96206  -0.06783
C          C       0.25548   0.89808   0.96353  -0.06918
C          C       0.98711   0.14987   0.20701  -0.06810
C          C       0.00841   0.85096   0.20418  -0.07093
C          C       0.24565   0.10282   0.47000  -0.06981
C          C       0.26258   0.39660   0.46588  -0.06941
C          C       0.48949   0.64963   0.21119  -0.06960
C          C       0.51029   0.34884   0.20631  -0.06977
C          C       0.74135   0.60054   0.46488  -0.06804
C          C       0.76166   0.89819   0.46395  -0.06995
C          C       0.48908   0.15004   0.70076  -0.07010
C          C       0.50772   0.85183   0.72491  -0.06744
C          C       0.73987   0.10226   0.97055  -0.06966
C          C       0.75419   0.39765   0.96438  -0.06875
C          C       0.93686   0.66713   0.76424  -0.07031
C          C       0.06123   0.33301   0.76856  -0.06782
C          C       0.18831   0.58246   0.01177  -0.06911
C          C       0.30943   0.91691   0.01425  -0.06709
C          C       0.93425   0.16826   0.26249  -0.06760
C          C       0.06176   0.83278   0.26061  -0.06822
C          C       0.19328   0.08368   0.52262  -0.06626
C          C       0.31675   0.41543   0.51547  -0.06746
C          C       0.43648   0.66808   0.26555  -0.06911
C          C       0.56417   0.33067   0.26078  -0.07061
C          C       0.68871   0.58168   0.51984  -0.06939
C          C       0.81515   0.91722   0.51425  -0.06876
C          C       0.43612   0.16845   0.75542  -0.06909
C          C       0.56135   0.83317   0.77516  -0.06726
C          C       0.68744   0.08323   0.02391  -0.06696
C          C       0.80806   0.41641   0.01646  -0.06906
C          C       0.95267   0.61087   0.61193   0.11007
C          C       0.04887   0.38906   0.61639   0.11039
C          C       0.20033   0.63897   0.86187   0.10966
C          C       0.29590   0.86075   0.86368   0.11002
C          C       0.94826   0.11172   0.11142   0.10809
C          C       0.04653   0.88927   0.10902   0.11067
C          C       0.20365   0.13940   0.36507   0.11117
C          C       0.30229   0.35925   0.36588   0.10968
C          C       0.45089   0.61149   0.11462   0.10799
C          C       0.54714   0.38739   0.11202   0.10932
C          C       0.70213   0.63812   0.36557   0.11120
C          C       0.80087   0.86061   0.36478   0.11168
C          C       0.45129   0.11165   0.60593   0.10906
C          C       0.54847   0.88894   0.62188   0.11066
C          C       0.69842   0.13918   0.86941   0.10932
C          C       0.79400   0.36015   0.86501   0.10977
C          C       0.90840   0.67201  -0.00121   0.10970
C          C       0.09245   0.32774   0.00215   0.10813
C          C       0.15349   0.57668   0.24282   0.10855
C          C       0.34287   0.92215   0.24633   0.10821
C          C       0.90668   0.17316   0.49714   0.10986
C          C       0.08947   0.82770   0.49601   0.10971
C          C       0.16126   0.07867   0.75567   0.10809
C          C       0.35168   0.42109   0.74633   0.11048
C          C       0.40247   0.67325   0.49730   0.10820
C          C       0.59530   0.32549   0.49421   0.10827
C          C       0.66076   0.57670   0.75515   0.11039
C          C       0.84951   0.92304   0.74605   0.10779
C          C       0.40566   0.17343   0.98836   0.10896
C          C       0.59690   0.82799   0.00589   0.10737
C          C       0.65791   0.07807   0.25774   0.10976
C          C       0.84084   0.42171   0.24999   0.10921
C          C       0.91336   0.58835   0.60346  -0.10170
C          C       0.09089   0.41091   0.60596  -0.10345
C          C       0.15972   0.66096   0.85213  -0.10117
C          C       0.33624   0.83869   0.85498  -0.10394
C          C       0.90893   0.08918   0.10443  -0.09940
C          C       0.08673   0.91162   0.10192  -0.10182
C          C       0.16192   0.16103   0.35221  -0.10250
C          C       0.34307   0.33734   0.35558  -0.10133
C          C       0.41119   0.58903   0.10720  -0.10063
C          C       0.58613   0.41001   0.10549  -0.10101
C          C       0.66190   0.66017   0.35547  -0.10222
C          C       0.84102   0.83851   0.35550  -0.10062
C          C       0.41279   0.08892   0.59989  -0.10201
C          C       0.58981   0.91092   0.60964  -0.10331
C          C       0.65780   0.16110   0.85878  -0.10130
C          C       0.83547   0.33838   0.85598  -0.10063
C          C       0.91771   0.57551   0.47835  -0.14971
C          C       0.08634   0.42398   0.48147  -0.15071
C          C       0.16292   0.67374   0.72653  -0.15360
C          C       0.33161   0.82574   0.73012  -0.15144
C          C       0.91267   0.07622   0.97985  -0.15284
C          C       0.08241   0.92497   0.97832  -0.15239
C          C       0.16733   0.17407   0.22785  -0.14948
C          C       0.33856   0.32450   0.23058  -0.15212
C          C       0.41544   0.57587   0.98311  -0.15328
C          C       0.58187   0.42317   0.98131  -0.15303
C          C       0.66679   0.67318   0.23090  -0.15138
C          C       0.83627   0.82531   0.23145  -0.15255
C          C       0.41683   0.07572   0.47615  -0.15231
C          C       0.58495   0.92353   0.48387  -0.15064
C          C       0.66287   0.17401   0.73393  -0.15136
C          C       0.83204   0.32546   0.73104  -0.15135
C          C       0.89374   0.66394   0.13460  -0.09055
C          C       0.10832   0.33578   0.13767  -0.09104
C          C       0.13723   0.58444   0.37825  -0.09216
C          C       0.35923   0.91416   0.38165  -0.08995
C          C       0.89206   0.16511   0.63301  -0.08965
C          C       0.10346   0.83581   0.63214  -0.09063
C          C       0.14397   0.08681   0.88982  -0.09036
C          C       0.36706   0.41344   0.88256  -0.09306
C          C       0.38708   0.66519   0.63284  -0.09165
C          C       0.60957   0.33352   0.63032  -0.09079
C          C       0.64495   0.58493   0.89011  -0.09103
C          C       0.86580   0.91521   0.88169  -0.09301
C          C       0.39087   0.16547   0.12427  -0.09080
C          C       0.61358   0.83589   0.14108  -0.09260
C          C       0.64174   0.08603   0.39275  -0.09050
C          C       0.85708   0.41365   0.38522  -0.09250
C          C       0.88282   0.68285   0.23218  -0.15272
C          C       0.12100   0.31679   0.23426  -0.15526
C          C       0.12578   0.56531   0.47509  -0.15518
C          C       0.37213   0.93327   0.47756  -0.15471
C          C       0.88207   0.18406   0.73073  -0.15309
C          C       0.11492   0.81684   0.72954  -0.15510
C          C       0.13291   0.06787   0.98767  -0.15459
C          C       0.37811   0.43266   0.97881  -0.15219
C          C       0.37281   0.68413   0.72837  -0.15581
C          C       0.62243   0.31458   0.72699  -0.15467
C          C       0.63429   0.56618   0.98945  -0.15308
C          C       0.87769   0.93427   0.97846  -0.15251
C          C       0.37905   0.18451   0.22069  -0.15443
C          C       0.62665   0.81675   0.23650  -0.15448
C          C       0.63065   0.06705   0.49018  -0.15239
C          C       0.86972   0.43252   0.48261  -0.15404
C          C       0.88332   0.55329   0.45233   0.02574
C          C       0.12276   0.44572   0.45428   0.02616
C          C       0.12842   0.69577   0.70079   0.02647
C          C       0.36544   0.80356   0.70518   0.02706
C          C       0.87899   0.05379   0.95565   0.02607
C          C       0.11798   0.94703   0.95427   0.02436
C          C       0.13212   0.19587   0.20018   0.02494
C          C       0.37342   0.30263   0.20409   0.02657
C          C       0.38100   0.55359   0.95853   0.02823
C          C       0.61702   0.44529   0.95671   0.02726
C          C       0.63242   0.69520   0.20472   0.02578
C          C       0.87091   0.80327   0.20680   0.02574
C          C       0.38336   0.05321   0.45335   0.02614
C          C       0.62029   0.94544   0.45518   0.02616
C          C       0.62919   0.19615   0.70733   0.02709
C          C       0.86806   0.30379   0.70511   0.02516
C          C       0.84147   0.54396   0.55882  -0.09688
C          C       0.16622   0.45453   0.55984  -0.09782
C          C       0.08834   0.70517   0.80911  -0.09604
C          C       0.40649   0.79425   0.81301  -0.09864
C          C       0.83906   0.04417   0.06428  -0.09485
C          C       0.16003   0.95595   0.06187  -0.09732
C          C       0.08866   0.20465   0.30473  -0.09675
C          C       0.41453   0.29323   0.31154  -0.09545
C          C       0.33956   0.54440   0.06606  -0.09779
C          C       0.65899   0.45434   0.06417  -0.09813
C          C       0.59042   0.70430   0.31097  -0.09756
C          C       0.91245   0.79424   0.31448  -0.09921
C          C       0.34331   0.04375   0.56221  -0.09591
C          C       0.66354   0.95474   0.56006  -0.09630
C          C       0.58725   0.20532   0.81337  -0.09689
C          C       0.90981   0.29483   0.81273  -0.09657
C          C       0.83530   0.55616   0.68217  -0.21533
C          C       0.17313   0.44200   0.68228  -0.21348
C          C       0.08296   0.69301   0.93286  -0.21393
C          C       0.41340   0.80668   0.93574  -0.21293
C          C       0.83325   0.05651   0.18734  -0.21646
C          C       0.16616   0.94327   0.18390  -0.21386
C          C       0.08109   0.19214   0.42708  -0.21406
C          C       0.42104   0.30545   0.43495  -0.21153
C          C       0.33356   0.55688   0.18863  -0.21280
C          C       0.66486   0.44190   0.18697  -0.21312
C          C       0.58338   0.69186   0.43372  -0.21397
C          C       0.91909   0.80676   0.43678  -0.21177
C          C       0.33714   0.05633   0.68429  -0.21327
C          C       0.67063   0.94265   0.68382  -0.21332
C          C       0.57990   0.19291   0.93631  -0.21199
C          C       0.91537   0.30717   0.93589  -0.21538
C          C       0.87109   0.57868   0.71169   0.32203
C          C       0.13639   0.41967   0.71178   0.32331
C          C       0.11780   0.67040   0.96067   0.32388
C          C       0.37911   0.82937   0.96326   0.32309
C          C       0.86764   0.07945   0.21390   0.32196
C          C       0.13048   0.92058   0.21010   0.32297
C          C       0.11689   0.16984   0.45711   0.32306
C          C       0.38653   0.32809   0.46283   0.32388
C          C       0.36874   0.57962   0.21590   0.32219
C          C       0.62889   0.41933   0.21422   0.32304
C          C       0.61866   0.66937   0.46253   0.32379
C          C       0.88422   0.82938   0.46348   0.32423
C          C       0.37122   0.07937   0.70940   0.32253
C          C       0.63421   0.92035   0.71536   0.32339
C          C       0.61505   0.17043   0.96631   0.32218
C          C       0.87897   0.32941   0.96393   0.32319
C          C       0.86883   0.67795   0.36793   0.03124
C          C       0.13464   0.32157   0.37036   0.03010
C          C       0.11387   0.57002   0.61171   0.03237
C          C       0.38527   0.92865   0.61393   0.03224
C          C       0.86743   0.17910   0.86610   0.02991
C          C       0.12846   0.82168   0.86561   0.03171
C          C       0.11757   0.07281   0.12250   0.03047
C          C       0.38905   0.42815   0.11617   0.03182
C          C       0.36087   0.67945   0.86507   0.03294
C          C       0.63348   0.31933   0.86400   0.03155
C          C       0.61843   0.57137   0.12395   0.03142
C          C       0.88919   0.92957   0.11534   0.03138
C          C       0.36665   0.17976   0.35716   0.03254
C          C       0.63901   0.82126   0.37333   0.03136
C          C       0.61629   0.07189   0.62552   0.03055
C          C       0.88345   0.42752   0.61843   0.03095
C          C       0.86726   0.65271   0.40734  -0.10214
C          C       0.13363   0.34667   0.41167  -0.10109
C          C       0.11483   0.59514   0.65311  -0.10105
C          C       0.38442   0.90356   0.65596  -0.10101
C          C       0.86435   0.15388   0.90536  -0.10222
C          C       0.12914   0.84686   0.90568  -0.10103
C          C       0.11507   0.09801   0.16139  -0.10250
C          C       0.38721   0.40308   0.15879  -0.09997
C          C       0.36455   0.65443   0.90797  -0.10164
C          C       0.62964   0.34436   0.90598  -0.10089
C          C       0.61531   0.59667   0.16096  -0.10346
C          C       0.88698   0.90452   0.15758  -0.10023
C          C       0.36738   0.15462   0.39855  -0.10241
C          C       0.63686   0.84627   0.41622  -0.10030
C          C       0.61474   0.09702   0.66540  -0.10136
C          C       0.88295   0.40234   0.65882  -0.10197
C          C       0.87943   0.63375   0.31566  -0.23107
C          C       0.12026   0.36569   0.32069  -0.22934
C          C       0.12685   0.61426   0.56189  -0.22915
C          C       0.37109   0.88439   0.56567  -0.23152
C          C       0.87595   0.13488   0.81376  -0.23108
C          C       0.11614   0.86584   0.81425  -0.23022
C          C       0.12706   0.11702   0.06935  -0.22793
C          C       0.37500   0.38386   0.06827  -0.22969
C          C       0.37927   0.63546   0.81801  -0.22991
C          C       0.61623   0.36334   0.81486  -0.22878
C          C       0.62752   0.61548   0.06773  -0.23019
C          C       0.87455   0.88543   0.06649  -0.22898
C          C       0.38023   0.13558   0.30787  -0.23073
C          C       0.62338   0.86544   0.32616  -0.22992
C          C       0.62686   0.11607   0.57367  -0.22847
C          C       0.86958   0.38342   0.56716  -0.22939
C          C       0.89188   0.63821   0.17537   0.32392
C          C       0.10882   0.36143   0.17972   0.32200
C          C       0.13669   0.61007   0.42063   0.32379
C          C       0.35930   0.88853   0.42471   0.32099
C          C       0.88904   0.13938   0.67374   0.32289
C          C       0.10433   0.86150   0.67355   0.32294
C          C       0.14011   0.11254   0.92933   0.32109
C          C       0.36637   0.38789   0.92638   0.32339
C          C       0.38962   0.63963   0.67671   0.32360
C          C       0.60768   0.35912   0.67314   0.32201
C          C       0.64161   0.61073   0.92852   0.32041
C          C       0.86558   0.88960   0.92486   0.32233
C          C       0.39116   0.13983   0.16687   0.32400
C          C       0.61280   0.86146   0.18456   0.32263
C          C       0.63911   0.11170   0.43345   0.31934
C          C       0.85774   0.38798   0.42667   0.32321
C          C       0.91765   0.55174   0.20619  -0.13147
C          C       0.08790   0.44665   0.20885  -0.13170
C          C       0.16161   0.69706   0.45374  -0.13224
C          C       0.33221   0.80266   0.45839  -0.13204
C          C       0.91136   0.05305   0.70888  -0.13376
C          C       0.08448   0.94861   0.70812  -0.13365
C          C       0.16820   0.19712   0.95545  -0.13274
C          C       0.33991   0.30227   0.95708  -0.13265
C          C       0.41452   0.55236   0.71250  -0.13252
C          C       0.58282   0.44683   0.71066  -0.13184
C          C       0.66660   0.69638   0.95855  -0.13349
C          C       0.83898   0.80187   0.95943  -0.13356
C          C       0.41658   0.05194   0.20719  -0.13262
C          C       0.58266   0.94637   0.21060  -0.13280
C          C       0.66446   0.19699   0.46200  -0.13275
C          C       0.83324   0.30264   0.45923  -0.13197
C          C       0.89717   0.53943   0.32571   0.05781
C          C       0.10942   0.45938   0.32643   0.05782
C          C       0.14085   0.70942   0.57250   0.05606
C          C       0.35186   0.78997   0.57719   0.05834
C          C       0.89186   0.04027   0.82760   0.05810
C          C       0.10485   0.96100   0.82756   0.05736
C          C       0.14683   0.20964   0.07320   0.05874
C          C       0.36059   0.28941   0.07476   0.05727
C          C       0.39414   0.53980   0.83130   0.05761
C          C       0.60424   0.45917   0.82956   0.05625
C          C       0.64661   0.70889   0.07730   0.05826
C          C       0.85839   0.78942   0.07918   0.05677
C          C       0.39616   0.03946   0.32624   0.05724
C          C       0.60600   0.95895   0.32735   0.05847
C          C       0.64401   0.20972   0.57974   0.05863
C          C       0.85556   0.29017   0.57687   0.05772
C          C       0.89811   0.51330   0.32428  -0.14794
C          C       0.10953   0.48550   0.32102  -0.14649
C          C       0.14013   0.73555   0.56843  -0.14700
C          C       0.35029   0.76385   0.57276  -0.14703
C          C       0.89336   0.01416   0.82331  -0.14653
C          C       0.10413   0.98713   0.82552  -0.14717
C          C       0.14789   0.23577   0.06935  -0.14771
C          C       0.36079   0.26333   0.06846  -0.14665
C          C       0.39461   0.51367   0.82734  -0.14474
C          C       0.60522   0.48531   0.82638  -0.14712
C          C       0.64877   0.73500   0.07438  -0.14730
C          C       0.85812   0.76328   0.07560  -0.14684
C          C       0.39625   0.01335   0.32335  -0.14599
C          C       0.60759   0.98507   0.32216  -0.14765
C          C       0.64639   0.23583   0.57534  -0.14704
C          C       0.85784   0.26408   0.57146  -0.14730
C          C       0.92539   0.50042   0.21448  -0.13723
C          C       0.08126   0.49795   0.21011  -0.13823
C          C       0.16713   0.74845   0.45783  -0.13675
C          C       0.32243   0.75137   0.46118  -0.13717
C          C       0.92140   0.00182   0.71243  -0.13803
C          C       0.07660  -0.00007   0.71522  -0.13556
C          C       0.17630   0.24848   0.95932  -0.13661
C          C       0.33329   0.25087   0.95663  -0.13846
C          C       0.42224   0.50109   0.71666  -0.13917
C          C       0.57804   0.49821   0.71608  -0.13572
C          C       0.67704   0.74769   0.96418  -0.13725
C          C       0.83141   0.75051   0.96397  -0.13773
C          C       0.42337   0.00060   0.21301  -0.13743
C          C       0.57996   0.99781   0.21175  -0.13563
C          C       0.67473   0.24828   0.46434  -0.13656
C          C       0.83090   0.25123   0.46040  -0.13635
C          C       0.95347   0.51296   0.10162   0.05284
C          C       0.05125   0.48501   0.10041   0.05585
C          C       0.19637   0.73598   0.34668   0.05409
C          C       0.29438   0.76428   0.34964   0.05368
C          C       0.94974   0.01491   0.60173   0.05447
C          C       0.04804   0.98727   0.60312   0.05408
C          C       0.20525   0.23577   0.84855   0.05570
C          C       0.30365   0.26384   0.84709   0.05457
C          C       0.45089   0.51388   0.60518   0.05427
C          C       0.54814   0.48566   0.60495   0.05406
C          C       0.70495   0.73496   0.85242   0.05497
C          C       0.80325   0.76317   0.85175   0.05503
C          C       0.45225   0.01328   0.10153   0.05557
C          C       0.54921   0.98511   0.10202   0.05504
C          C       0.70275   0.23535   0.35341   0.05418
C          C       0.80015   0.26378   0.35059   0.05268
C          C       0.94582   0.53875   0.09724  -0.13550
C          C       0.05871   0.45920   0.09894  -0.13621
C          C       0.18940   0.71011   0.34376  -0.13522
C          C       0.30342   0.79006   0.34781  -0.13540
C          C       0.94032   0.04062   0.59891  -0.13495
C          C       0.05580   0.96150   0.59895  -0.13580
C          C       0.19729   0.20995   0.84616  -0.13708
C          C       0.31127   0.28968   0.84625  -0.13360
C          C       0.44282   0.53968   0.60272  -0.13587
C          C       0.55461   0.45983   0.60138  -0.13668
C          C       0.69585   0.70918   0.84928  -0.13589
C          C       0.81142   0.78899   0.84853  -0.13575
C          C       0.44476   0.03908   0.09801  -0.13651
C          C       0.55426   0.95923   0.10097  -0.13525
C          C       0.69397   0.20954   0.35222  -0.13564
C          C       0.80537   0.28966   0.34909  -0.13545
C          C       0.88768   0.70977   0.55903  -0.14532
C          C       0.11876   0.29051   0.56496  -0.14582
C          C       0.13344   0.53944   0.80681  -0.14656
C          C       0.36743   0.95922   0.80857  -0.14571
C          C       0.88641   0.21144   0.05438  -0.14643
C          C       0.11069   0.79024   0.05829  -0.14505
C          C       0.13507   0.04155   0.31576  -0.14472
C          C       0.36868   0.45880   0.31046  -0.14479
C          C       0.37813   0.71000   0.06073  -0.14508
C          C       0.61688   0.28865   0.05970  -0.14539
C          C       0.63616   0.53904   0.31308  -0.14610
C          C       0.86908   0.96030   0.30819  -0.14576
C          C       0.38625   0.21119   0.54854  -0.14482
C          C       0.62161   0.79080   0.56976  -0.14715
C          C       0.63481   0.04028   0.81597  -0.14358
C          C       0.86676   0.45830   0.81325  -0.14626
C          C       0.84575   0.69756   0.46415   0.06123
C          C       0.15913   0.30196   0.46526   0.06225
C          C       0.09116   0.55041   0.70879   0.06237
C          C       0.40893   0.94829   0.70986   0.06046
C          C       0.84418   0.19852   0.96302   0.06270
C          C       0.15209   0.80209   0.96165   0.06265
C          C       0.09376   0.05323   0.21865   0.06114
C          C       0.41102   0.44804   0.21243   0.06187
C          C       0.33702   0.69908   0.95988   0.06083
C          C       0.65771   0.29987   0.95995   0.06213
C          C       0.59456   0.55185   0.22095   0.06276
C          C       0.91169   0.94935   0.21145   0.06233
C          C       0.34367   0.19929   0.45370   0.06026
C          C       0.66240   0.80145   0.46795   0.06241
C          C       0.59296   0.05204   0.72026   0.06066
C          C       0.90763   0.44704   0.71465   0.06221
C          C       0.77583   0.70337   0.46286  -0.13249
C          C       0.22832   0.29536   0.45784  -0.13509
C          C       0.02172   0.54356   0.70659  -0.13277
C          C       0.47836   0.95511   0.70637  -0.13225
C          C       0.77356   0.20298   0.96726  -0.13634
C          C       0.22176   0.79600   0.95871  -0.13591
C          C       0.02383   0.04711   0.21531  -0.13459
C          C       0.47998   0.45549   0.20938  -0.13456
C          C       0.26834   0.70636   0.95168  -0.13375
C          C       0.72698   0.29329   0.95452  -0.13384
C          C       0.52397   0.54684   0.22272  -0.13557
C          C       0.98074   0.95669   0.20842  -0.13503
C          C       0.27374   0.20504   0.45471  -0.13307
C          C       0.73070   0.79380   0.45871  -0.13424
C          C       0.52338   0.04546   0.71573  -0.13340
C          C       0.97723   0.45358   0.71028  -0.13506
C          C       0.74838   0.71945   0.55763  -0.12407
C          C       0.25672   0.27906   0.55094  -0.12100
C          C       0.99521   0.52741   0.80297  -0.12374
C          C       0.50580   0.97107   0.80283  -0.12231
C          C       0.74599   0.21883   0.06291  -0.12015
C          C       0.24954   0.77995   0.05373  -0.12328
C          C       0.99589   0.03092   0.30972  -0.12184
C          C       0.50621   0.47182   0.30537  -0.12133
C          C       0.24099   0.72251   0.04632  -0.12201
C          C       0.75505   0.27744   0.05037  -0.12188
C          C       0.49590   0.53047   0.31613  -0.12172
C          C       0.00687   0.97311   0.30399  -0.12180
C          C       0.24703   0.22087   0.55157  -0.12276
C          C       0.75792   0.77734   0.55239  -0.12418
C          C       0.49621   0.02876   0.80836  -0.12436
C          C       0.00536   0.46976   0.80492  -0.12234
C          C       0.78955   0.73072   0.65773   0.06185
C          C       0.21719   0.26835   0.65499   0.06017
C          C       0.03672   0.51717   0.90518   0.06073
C          C       0.46508   0.98120   0.90594   0.06278
C          C       0.78762   0.23098   0.15895   0.06100
C          C       0.20901   0.76894   0.15525   0.06180
C          C       0.03639   0.02005   0.41147   0.06093
C          C       0.46476   0.48181   0.40786   0.06003
C          C       0.28102   0.73244   0.15231   0.06195
C          C       0.71510   0.26713   0.15503   0.06155
C          C       0.53685   0.51852   0.41332   0.06187
C          C       0.96517   0.98313   0.40585   0.06194
C          C       0.28886   0.23185   0.65155   0.06150
C          C       0.71808   0.76740   0.65818   0.06307
C          C       0.53720   0.01786   0.90928   0.06294
C          C       0.96525   0.48028   0.90792   0.06173
C          C       0.85980   0.72611   0.65518  -0.14953
C          C       0.14750   0.27394   0.65921  -0.14833
C          C       0.10645   0.52304   0.90452  -0.14901
C          C       0.39527   0.97548   0.90611  -0.15060
C          C       0.85828   0.22740   0.15218  -0.14956
C          C       0.13891   0.77390   0.15460  -0.15057
C          C       0.10657   0.02520   0.41203  -0.14932
C          C       0.39528   0.47546   0.40759  -0.14950
C          C       0.35046   0.72646   0.15628  -0.14986
C          C       0.64527   0.27250   0.15660  -0.15024
C          C       0.60747   0.52272   0.40945  -0.14995
C          C       0.89560   0.97702   0.40486  -0.15035
C          C       0.35908   0.22722   0.64702  -0.15023
C          C       0.64915   0.77401   0.66432  -0.15001
C          C       0.60713   0.02339   0.91033  -0.15069
C          C       0.89540   0.47460   0.90976  -0.14976
C          C       0.49999   0.49998   0.50766   0.01439
C          C       0.75401   0.74900   0.75444   0.01113
C          C       0.50099   0.99930   0.00440   0.01100
C          C       0.75147   0.24930   0.25422   0.01297
C          C       0.00162   0.49883   0.00358   0.01313
C          C       0.24519   0.75044   0.25044   0.01282
C          C      -0.00023   0.00139   0.50532   0.01287
C          C       0.25380   0.24992   0.75013   0.01307
N          N       0.96054   0.62427   0.72066  -0.27263
N          N       0.03991   0.37607   0.72642  -0.27192
N          N       0.20907   0.62581   0.97136  -0.27131
N          N       0.28666   0.87371   0.97338  -0.27048
N          N       0.95665   0.12524   0.21951  -0.27102
N          N       0.03858   0.87564   0.21695  -0.27178
N          N       0.21248   0.12683   0.47646  -0.27318
N          N       0.29394   0.37227   0.47563  -0.27121
N          N       0.45881   0.62503   0.22286  -0.27101
N          N       0.53987   0.37359   0.21941  -0.27014
N          N       0.70996   0.62485   0.47483  -0.27353
N          N       0.79353   0.87394   0.47379  -0.27304
N          N       0.45893   0.12539   0.71341  -0.26986
N          N       0.54003   0.87619   0.73281  -0.27253
N          N       0.70763   0.12641   0.97994  -0.27250
N          N       0.78549   0.37331   0.97425  -0.27216
N          N       0.91264   0.65755   0.89358  -0.26194
N          N       0.08736   0.34229   0.89730  -0.26198
N          N       0.16043   0.59143   0.13905  -0.26341
N          N       0.33668   0.90757   0.14181  -0.26274
N          N       0.90956   0.15873   0.39161  -0.26315
N          N       0.08486   0.84224   0.39107  -0.26159
N          N       0.16610   0.09297   0.64969  -0.26059
N          N       0.34464   0.40629   0.64286  -0.26464
N          N       0.41081   0.65859   0.39398  -0.26220
N          N       0.58925   0.34012   0.38983  -0.26214
N          N       0.66355   0.59097   0.64868  -0.26168
N          N       0.84290   0.90830   0.64223  -0.26193
N          N       0.41070   0.15886   0.88382  -0.26343
N          N       0.58974   0.84260   0.90172  -0.26249
N          N       0.66131   0.09249   0.15201  -0.26216
N          N       0.83426   0.40722   0.14510  -0.26223
O          O       0.90003   0.61893   0.09498  -0.51652
O          O       0.09998   0.38089   0.10028  -0.51390
O          O       0.14381   0.62960   0.34105  -0.51459
O          O       0.34994   0.86897   0.34630  -0.51223
O          O       0.89673   0.12005   0.59365  -0.51322
O          O       0.09631   0.88094   0.59364  -0.51508
O          O       0.14705   0.13180   0.84770  -0.51453
O          O       0.35908   0.36836   0.84725  -0.51530
O          O       0.40010   0.62020   0.59866  -0.51388
O          O       0.59954   0.37857   0.59377  -0.51233
O          O       0.65043   0.62994   0.84727  -0.51503
O          O       0.85814   0.87007   0.84585  -0.51406
O          O       0.40020   0.12041   0.08791  -0.51495
O          O       0.60348   0.88094   0.10568  -0.51380
O          O       0.64676   0.13112   0.35320  -0.51452
O          O       0.84884   0.36870   0.34649  -0.51314
O          O       0.86318   0.58875   0.83212  -0.50753
O          O       0.14683   0.40883   0.82956  -0.51104
O          O       0.10970   0.66005   0.08028  -0.50594
O          O       0.38907   0.84001   0.08179  -0.50860
O          O       0.85959   0.08992   0.33308  -0.50851
O          O       0.14001   0.90971   0.32791  -0.51013
O          O       0.10624   0.15906   0.57483  -0.51000
O          O       0.39656   0.33871   0.58116  -0.50761
O          O       0.36002   0.59013   0.33478  -0.50862
O          O       0.63744   0.40877   0.33317  -0.50772
O          O       0.60961   0.65878   0.58124  -0.50908
O          O       0.89361   0.84003   0.58185  -0.50924
O          O       0.36256   0.09003   0.82769  -0.50804
O          O       0.64355   0.91021   0.83537  -0.51007
O          O       0.60666   0.16015   0.08624  -0.50875
O          O       0.88734   0.33986   0.08321  -0.50757

