data_crystal

_audit_creation_method 'AiiDA-DDEC plugin'

_cell_length_a        20.65502
_cell_length_b        50.08620
_cell_length_c        10.59676

_cell_angle_alpha     90.02718
_cell_angle_beta     90.07141
_cell_angle_gamma     89.49332

_symmetry_space_group_name_Hall 'P 1'
_symmetry_space_group_name_H-M  'P 1'

loop_
_symmetry_equiv_pos_as_xyz
 'x,y,z'

loop_
_atom_site_label
_atom_site_type_symbol
_atom_site_fract_x
_atom_site_fract_y
_atom_site_fract_z
_atom_site_charge
H          H       0.64308   0.18488   0.17957   0.08957
H          H       0.35598   0.81944   0.19075   0.09137
H          H       0.90061   0.06904   0.41949   0.09424
H          H       0.59657   0.43276   0.42104   0.09349
H          H       0.64220   0.68399   0.67501   0.09237
H          H       0.34589   0.32039   0.67773   0.09206
H          H       0.90760   0.57076   0.92331   0.09539
H          H       0.59988   0.92846   0.93696   0.09423
H          H       0.15374   0.18301   0.68171   0.09286
H          H       0.84488   0.81657   0.68059   0.09483
H          H       0.40029   0.06683   0.93162   0.09090
H          H       0.10980   0.43150   0.92631   0.09116
H          H       0.14589   0.68464   0.17691   0.09160
H          H       0.85087   0.31651   0.17952   0.09131
H          H       0.40120   0.56885   0.43056   0.09280
H          H       0.10248   0.93087   0.42731   0.09213
H          H       0.57300   0.20323   0.13782   0.07654
H          H       0.42032   0.79817   0.14411   0.07494
H          H       0.83700   0.04789   0.37097   0.07597
H          H       0.66053   0.45279   0.36704   0.07481
H          H       0.57674   0.70393   0.62455   0.07782
H          H       0.40868   0.29874   0.63062   0.07474
H          H       0.84864   0.54730   0.87767   0.07630
H          H       0.65819   0.95126   0.88371   0.07340
H          H       0.09054   0.20435   0.62974   0.07462
H          H       0.90764   0.79478   0.63361   0.07691
H          H       0.33520   0.04638   0.88581   0.07671
H          H       0.17594   0.45145   0.88248   0.07521
H          H       0.08098   0.70548   0.13095   0.07582
H          H       0.91466   0.29588   0.12685   0.07775
H          H       0.33910   0.54733   0.37941   0.07573
H          H       0.16491   0.95200   0.37660   0.07198
H          H       0.50563   0.16291   0.17736   0.09352
H          H       0.49593   0.83710   0.16627   0.09506
H          H       0.75823   0.08584   0.41044   0.09094
H          H       0.73944   0.41638   0.42191   0.09674
H          H       0.50060   0.66700   0.67391   0.09217
H          H       0.48963   0.33377   0.67566   0.09398
H          H       0.76277   0.58268   0.91245   0.09455
H          H       0.74314   0.91428   0.90032   0.09340
H          H       0.01073   0.16844   0.67185   0.09539
H          H       0.98777   0.83155   0.67466   0.09315
H          H       0.25708   0.08323   0.93652   0.09452
H          H       0.24852   0.41075   0.91019   0.09362
H          H       0.00368   0.66805   0.17429   0.09497
H          H       0.99324   0.33172   0.16754   0.08860
H          H       0.25747   0.58293   0.43026   0.09468
H          H       0.24362   0.91343   0.40998   0.09307
H          H       0.54759   0.17289   0.31489   0.08066
H          H       0.45550   0.82846   0.31014   0.08045
H          H       0.80195   0.07532   0.54763   0.09373
H          H       0.69171   0.42691   0.55388   0.09233
H          H       0.54625   0.67626   0.80884   0.09307
H          H       0.44202   0.32636   0.80943   0.09110
H          H       0.80874   0.57497   0.05078   0.09215
H          H       0.70640   0.92214   0.04754   0.09446
H          H       0.05668   0.17695   0.80874   0.09276
H          H       0.94366   0.82251   0.81127   0.09230
H          H       0.30491   0.07405   0.06980   0.09329
H          H       0.20709   0.42004   0.05063   0.08023
H          H       0.05039   0.67741   0.30853   0.09254
H          H       0.94784   0.32460   0.30556   0.09172
H          H       0.30712   0.57357   0.56177   0.09248
H          H       0.20078   0.92281   0.54976   0.07880
H          H       0.59945   0.20960   0.92177   0.07586
H          H       0.39876   0.79092   0.92829   0.07592
H          H       0.85136   0.04322   0.15723   0.07454
H          H       0.64915   0.45589   0.16104   0.07369
H          H       0.60350   0.70795   0.42112   0.07230
H          H       0.39716   0.29460   0.41790   0.07410
H          H       0.86150   0.54196   0.66302   0.07600
H          H       0.64390   0.95679   0.67469   0.07408
H          H       0.10658   0.20901   0.42110   0.07286
H          H       0.88916   0.79011   0.42175   0.07457
H          H       0.34847   0.04242   0.67251   0.07514
H          H       0.15567   0.45893   0.66480   0.07604
H          H       0.10032   0.71002   0.91373   0.07471
H          H       0.89290   0.29168   0.91617   0.07477
H          H       0.35711   0.54358   0.17002   0.07490
H          H       0.14530   0.95798   0.16248   0.07500
H          H       0.55480   0.13340   0.41456   0.08093
H          H       0.44342   0.86718   0.41472   0.08022
H          H       0.80055   0.11650   0.66049   0.09899
H          H       0.70138   0.38459   0.66275   0.10056
H          H       0.54545   0.63562   0.91573   0.09687
H          H       0.44405   0.36697   0.91713   0.09779
H          H       0.80592   0.61438   0.16160   0.09784
H          H       0.70205   0.88231   0.15755   0.09728
H          H       0.05535   0.13577   0.91676   0.09733
H          H       0.94361   0.86308   0.92165   0.09915
H          H       0.30691   0.11454   0.17951   0.09763
H          H       0.19182   0.38231   0.15221   0.07867
H          H       0.05462   0.63726   0.41837   0.09731
H          H       0.95147   0.36569   0.40740   0.09846
H          H       0.30302   0.61511   0.67470   0.09984
H          H       0.19049   0.88419   0.65785   0.08037
H          H       0.62406   0.21528   0.69801   0.10701
H          H       0.36942   0.78420   0.70316   0.10797
H          H       0.87219   0.03658   0.93742   0.10847
H          H       0.63114   0.46265   0.94029   0.10889
H          H       0.62407   0.71433   0.19592   0.10894
H          H       0.37830   0.28801   0.19378   0.10717
H          H       0.87797   0.53512   0.44098   0.10888
H          H       0.62457   0.96406   0.44839   0.10740
H          H       0.12483   0.21645   0.20419   0.10788
H          H       0.87074   0.78382   0.19922   0.10983
H          H       0.37452   0.03598   0.45351   0.10626
H          H       0.12711   0.46515   0.43758   0.10716
H          H       0.12544   0.71537   0.69405   0.10654
H          H       0.87026   0.28563   0.69599   0.10901
H          H       0.37615   0.53760   0.94938   0.10969
H          H       0.12515   0.96386   0.93673   0.10678
H          H       0.57034   0.09521   0.53528   0.10861
H          H       0.42777   0.90575   0.53977   0.11014
H          H       0.81615   0.15533   0.78536   0.10580
H          H       0.68340   0.34572   0.78722   0.10523
H          H       0.56269   0.59665   0.04017   0.10415
H          H       0.43028   0.40624   0.03923   0.10668
H          H       0.81672   0.65354   0.28945   0.10863
H          H       0.68635   0.84377   0.28118   0.10612
H          H       0.07104   0.09630   0.03886   0.10779
H          H       0.92613   0.90263   0.04597   0.10787
H          H       0.32351   0.15397   0.30136   0.10538
H          H       0.17286   0.34493   0.27874   0.10892
H          H       0.06937   0.59778   0.53798   0.10651
H          H       0.93691   0.40526   0.52689   0.10573
H          H       0.31567   0.65458   0.79141   0.10532
H          H       0.17363   0.84588   0.78246   0.10811
H          H       0.67039   0.14717   0.46772   0.09904
H          H       0.33446   0.85179   0.46426   0.09914
H          H       0.92179   0.10288   0.70058   0.10011
H          H       0.57877   0.39711   0.70045   0.10084
H          H       0.67137   0.64673   0.96136   0.10245
H          H       0.33081   0.35446   0.95463   0.09917
H          H       0.92217   0.60150   0.20005   0.09971
H          H       0.58588   0.89725   0.20370   0.10122
H          H       0.16941   0.15095   0.95391   0.10051
H          H       0.82721   0.85091   0.96047   0.09913
H          H       0.42262   0.10287   0.21973   0.10021
H          H       0.08067   0.39722   0.20807   0.09911
H          H       0.17206   0.64784   0.46252   0.09917
H          H       0.83312   0.35325   0.45472   0.10104
H          H       0.42459   0.60425   0.71477   0.09956
H          H       0.07324   0.89646   0.70661   0.10223
H          H       0.65392   0.11713   0.64908   0.12826
H          H       0.35394   0.88247   0.64315   0.12789
H          H       0.90772   0.13406   0.88041   0.13394
H          H       0.59167   0.36555   0.87883   0.13246
H          H       0.65063   0.61611   0.14119   0.13353
H          H       0.34045   0.38547   0.13584   0.13531
H          H       0.90735   0.63288   0.37941   0.13062
H          H       0.59648   0.86616   0.38560   0.13658
H          H       0.15550   0.11872   0.13047   0.13109
H          H       0.84144   0.88190   0.14158   0.12991
H          H       0.40457   0.13378   0.39656   0.13411
H          H       0.09712   0.36701   0.39225   0.12818
H          H       0.15681   0.61731   0.64456   0.13341
H          H       0.85099   0.38399   0.63597   0.13386
H          H       0.40658   0.63522   0.89143   0.13043
H          H       0.08838   0.86618   0.89111   0.13033
H          H       0.64385   0.02161   0.37773   0.10106
H          H       0.36446   0.98037   0.37966   0.09850
H          H       0.89019   0.22770   0.62443   0.09633
H          H       0.60505   0.27408   0.62427   0.09706
H          H       0.64320   0.52474   0.88300   0.09783
H          H       0.35826   0.47916   0.87520   0.09749
H          H       0.88351   0.72745   0.12995   0.09537
H          H       0.60149   0.77276   0.12651   0.09644
H          H       0.13728   0.02339   0.86660   0.09810
H          H       0.86172   0.97555   0.87360   0.09749
H          H       0.39516   0.22575   0.13154   0.09824
H          H       0.11128   0.27004   0.12283   0.10000
H          H       0.14035   0.52487   0.36694   0.09877
H          H       0.86738   0.47768   0.35716   0.09581
H          H       0.38893   0.72683   0.62257   0.09681
H          H       0.10370   0.77232   0.62260   0.09992
H          H       0.66574   0.04550   0.17540   0.12717
H          H       0.35172   0.95833   0.17263   0.12594
H          H       0.90941   0.20422   0.42085   0.12080
H          H       0.58567   0.29875   0.42167   0.12138
H          H       0.65733   0.54705   0.67752   0.12115
H          H       0.33913   0.45605   0.67347   0.12044
H          H       0.89786   0.70539   0.92241   0.11943
H          H       0.58649   0.79525   0.92113   0.12121
H          H       0.15477   0.04678   0.66415   0.12143
H          H       0.84421   0.95233   0.67135   0.12103
H          H       0.40947   0.20184   0.92694   0.12228
H          H       0.09625   0.29185   0.91418   0.12534
H          H       0.15784   0.54918   0.16598   0.12197
H          H       0.85124   0.45482   0.15565   0.11923
H          H       0.40499   0.70226   0.42126   0.12170
H          H       0.09155   0.79458   0.41632   0.12783
H          H       0.61601   0.14433   0.95383   0.28763
H          H       0.38588   0.85633   0.95125   0.28592
H          H       0.87226   0.10854   0.18585   0.29634
H          H       0.62594   0.38950   0.18730   0.30275
H          H       0.60424   0.64163   0.43949   0.29978
H          H       0.37460   0.36086   0.44297   0.30046
H          H       0.87304   0.60820   0.68654   0.29639
H          H       0.62469   0.89148   0.69336   0.29279
H          H       0.12504   0.14267   0.44222   0.30247
H          H       0.87610   0.85675   0.44825   0.29625
H          H       0.37090   0.10814   0.70415   0.29725
H          H       0.13615   0.39456   0.69386   0.28325
H          H       0.12205   0.64325   0.94763   0.30078
H          H       0.88292   0.35788   0.94183   0.29911
H          H       0.36771   0.61102   0.19816   0.30515
H          H       0.13204   0.89388   0.19133   0.28462
H          H       0.61958   0.11390   0.13729   0.30677
H          H       0.39731   0.89019   0.12711   0.30861
H          H       0.84885   0.12406   0.40087   0.26370
H          H       0.64525   0.37863   0.40766   0.26030
H          H       0.59478   0.62746   0.65700   0.26325
H          H       0.39910   0.37476   0.65532   0.26173
H          H       0.84562   0.62483   0.89886   0.26314
H          H       0.65857   0.87402   0.89478   0.26449
H          H       0.10001   0.12773   0.65464   0.26182
H          H       0.89541   0.87169   0.66195   0.26093
H          H       0.34673   0.12228   0.91432   0.26393
H          H       0.14192   0.35999   0.86903   0.30916
H          H       0.09409   0.62901   0.15317   0.26236
H          H       0.90410   0.37345   0.14688   0.25994
H          H       0.34617   0.62320   0.41193   0.25785
H          H       0.14370   0.86257   0.37587   0.29942
H          H       0.59124   0.23096   0.47110   0.10148
H          H       0.40406   0.76765   0.47053   0.10380
H          H       0.84081   0.02076   0.70594   0.10279
H          H       0.66290   0.47896   0.70513   0.10389
H          H       0.58732   0.73017   0.96949   0.10249
H          H       0.41065   0.27131   0.96186   0.10487
H          H       0.84100   0.51926   0.20240   0.10291
H          H       0.66645   0.97909   0.21097   0.10400
H          H       0.08636   0.23171   0.95541   0.10412
H          H       0.90435   0.76758   0.96760   0.10211
H          H       0.34380   0.02075   0.22023   0.10376
H          H       0.15540   0.48118   0.22020   0.10163
H          H       0.09355   0.73126   0.47895   0.09981
H          H       0.91137   0.27045   0.45696   0.10216
H          H       0.34049   0.52191   0.71602   0.10348
H          H       0.15846   0.97825   0.70496   0.10227
H          H       0.74930   0.17557   0.42101   0.10311
H          H       0.25176   0.82582   0.42087   0.09983
H          H       0.00026   0.07449   0.66002   0.10613
H          H       0.49961   0.42691   0.67178   0.10598
H          H       0.74510   0.67485   0.91675   0.10486
H          H       0.25320   0.32690   0.91440   0.10073
H          H       0.00048   0.57326   0.16178   0.10585
H          H       0.50664   0.92568   0.16485   0.10333
H          H       0.25283   0.17984   0.93400   0.10652
H          H       0.74820   0.82377   0.91972   0.10137
H          H       0.50458   0.07394   0.18440   0.10192
H          H       0.00444   0.42442   0.15572   0.10397
H          H       0.24999   0.67602   0.41461   0.10735
H          H       0.74995   0.32473   0.42003   0.10608
H          H       0.50104   0.57518   0.67146   0.10400
H          H       0.99467   0.92647   0.66564   0.10658
H          H       0.78954   0.20196   0.24668   0.11288
H          H       0.20928   0.80055   0.24518   0.11087
H          H       0.03971   0.04840   0.48315   0.11549
H          H       0.45743   0.45355   0.49876   0.11518
H          H       0.78459   0.70097   0.74160   0.11519
H          H       0.21141   0.30074   0.74014   0.11243
H          H       0.04110   0.54723   0.98646   0.11396
H          H       0.46428   0.95300   0.99472   0.11270
H          H       0.29379   0.20537   0.75680   0.11365
H          H       0.70679   0.79808   0.74424   0.11597
H          H       0.54546   0.04806   0.00627   0.11276
H          H       0.96498   0.45033   0.97849   0.11528
H          H       0.28809   0.70295   0.24068   0.11553
H          H       0.70774   0.29828   0.24763   0.11521
H          H       0.54155   0.54859   0.49933   0.11577
H          H       0.95528   0.95296   0.49067   0.11343
H          H       0.63285   0.25798   0.29406   0.10534
H          H       0.36094   0.74195   0.29087   0.10600
H          H       0.88257   0.99353   0.52887   0.10530
H          H       0.61812   0.50681   0.53232   0.10600
H          H       0.62791   0.75713   0.79075   0.10551
H          H       0.36755   0.24427   0.78669   0.10582
H          H       0.88395   0.49236   0.02587   0.10651
H          H       0.62323   0.00703   0.03692   0.10394
H          H       0.12962   0.25821   0.77780   0.10247
H          H       0.86102   0.74088   0.79021   0.10586
H          H       0.38574   0.99427   0.03996   0.10401
H          H       0.11478   0.50796   0.04027   0.10522
H          H       0.13298   0.75921   0.30134   0.10230
H          H       0.86750   0.24327   0.28327   0.10580
H          H       0.38265   0.49445   0.54079   0.10558
H          H       0.11654   0.00596   0.52976   0.10500
H          H       0.50747   0.06964   0.62104   0.10317
H          H       0.49720   0.93199   0.62275   0.10252
H          H       0.75252   0.18122   0.87026   0.10068
H          H       0.74559   0.31924   0.86986   0.10111
H          H       0.50746   0.57209   0.13283   0.10199
H          H       0.49693   0.43304   0.11467   0.10117
H          H       0.74807   0.68078   0.36773   0.10359
H          H       0.74904   0.81593   0.36033   0.09750
H          H       0.00011   0.06784   0.10666   0.09952
H          H       0.99367   0.92962   0.11976   0.10420
H          H       0.25739   0.18067   0.37843   0.10145
H          H       0.24510   0.31797   0.35409   0.10235
H          H       0.00486   0.57020   0.61759   0.09924
H          H       0.00288   0.43171   0.60386   0.10124
H          H       0.25196   0.68147   0.87195   0.10088
H          H       0.23847   0.82018   0.86964   0.10580
H          H       0.66356   0.01260   0.59937   0.09924
H          H       0.33885   0.98805   0.60598   0.09811
H          H       0.90872   0.23713   0.84517   0.09493
H          H       0.58666   0.26484   0.84687   0.09584
H          H       0.66319   0.51513   0.10117   0.09714
H          H       0.33071   0.48503   0.10930   0.09975
H          H       0.91063   0.73340   0.35790   0.09718
H          H       0.58045   0.76629   0.35400   0.09916
H          H       0.16699   0.01628   0.10064   0.09786
H          H       0.83306   0.98447   0.09783   0.09636
H          H       0.41310   0.23653   0.35011   0.09821
H          H       0.08156   0.26561   0.35911   0.09933
H          H       0.16583   0.51572   0.59143   0.09734
H          H       0.84213   0.48662   0.58545   0.09761
H          H       0.41001   0.73640   0.85249   0.09688
H          H       0.07994   0.76505   0.85529   0.09783
H          H       0.62306   0.99095   0.79169   0.08685
H          H       0.38166   0.01084   0.79375   0.08585
H          H       0.86873   0.25943   0.03600   0.08456
H          H       0.62762   0.24161   0.03649   0.08759
H          H       0.62095   0.49138   0.28666   0.08426
H          H       0.37232   0.50835   0.29797   0.08733
H          H       0.86973   0.75629   0.54855   0.08529
H          H       0.61981   0.74341   0.54601   0.08781
H          H       0.12548   0.99256   0.28799   0.08867
H          H       0.87569   0.00883   0.28230   0.08571
H          H       0.37046   0.26053   0.53582   0.08493
H          H       0.12532   0.24359   0.54850   0.08729
H          H       0.12577   0.49178   0.77852   0.08883
H          H       0.88244   0.50893   0.77814   0.08440
H          H       0.36795   0.75948   0.04009   0.08661
H          H       0.12263   0.74283   0.04564   0.08740
H          H       0.46962   0.04881   0.81242   0.09539
H          H       0.53798   0.95444   0.80849   0.09307
H          H       0.71452   0.20308   0.05883   0.09436
H          H       0.78453   0.29647   0.05640   0.09168
H          H       0.46641   0.54845   0.31275   0.09265
H          H       0.53672   0.45576   0.30021   0.09097
H          H       0.70758   0.70380   0.55328   0.09225
H          H       0.78520   0.79399   0.55171   0.09089
H          H       0.95983   0.04417   0.28999   0.09114
H          H       0.03525   0.95376   0.30000   0.09484
H          H       0.21661   0.20428   0.56256   0.09267
H          H       0.28657   0.29677   0.54248   0.09378
H          H       0.96629   0.54656   0.80125   0.09039
H          H       0.04127   0.45393   0.79266   0.09455
H          H       0.21143   0.70431   0.05672   0.09240
H          H       0.27882   0.79831   0.05708   0.09802
C          C       0.59463   0.18311   0.13822  -0.06176
C          C       0.40279   0.81898   0.14166  -0.06062
C          C       0.85292   0.06878   0.37392  -0.06801
C          C       0.64430   0.43208   0.37572  -0.06815
C          C       0.59412   0.68318   0.63104  -0.06835
C          C       0.39363   0.31982   0.63276  -0.06946
C          C       0.86024   0.56869   0.87743  -0.06638
C          C       0.64555   0.92998   0.88475  -0.06683
C          C       0.10647   0.18338   0.63414  -0.06502
C          C       0.89281   0.81588   0.63627  -0.06880
C          C       0.35173   0.06712   0.88996  -0.06653
C          C       0.15727   0.43097   0.87977  -0.06089
C          C       0.09799   0.68465   0.13231  -0.06695
C          C       0.89783   0.31674   0.13125  -0.06846
C          C       0.35361   0.56834   0.38486  -0.06711
C          C       0.14919   0.93111   0.37804  -0.05994
C          C       0.55388   0.16440   0.21959  -0.05213
C          C       0.44904   0.83713   0.21504  -0.05364
C          C       0.80608   0.08518   0.45515  -0.04456
C          C       0.69054   0.41676   0.46185  -0.04561
C          C       0.54925   0.66701   0.71488  -0.04626
C          C       0.44075   0.33533   0.71511  -0.04278
C          C       0.81059   0.58410   0.95642  -0.04252
C          C       0.69772   0.91361   0.95348  -0.04312
C          C       0.05897   0.16763   0.71470  -0.04430
C          C       0.93960   0.83182   0.71778  -0.04418
C          C       0.30625   0.08325   0.97551  -0.04424
C          C       0.20075   0.41181   0.95497  -0.05197
C          C       0.05260   0.66821   0.21446  -0.04560
C          C       0.94498   0.33311   0.20998  -0.04214
C          C       0.30653   0.58352   0.46940  -0.04652
C          C       0.19596   0.91369   0.45536  -0.05055
C          C       0.60609   0.18792   0.91427   0.08312
C          C       0.39188   0.81249   0.91750   0.08276
C          C       0.85916   0.06477   0.15008   0.08655
C          C       0.64100   0.43432   0.15326   0.09049
C          C       0.60455   0.68619   0.40939   0.08842
C          C       0.38930   0.31620   0.40902   0.08733
C          C       0.86546   0.56370   0.65380   0.08890
C          C       0.63666   0.93528   0.66210   0.08849
C          C       0.11300   0.18735   0.41157   0.08959
C          C       0.88531   0.81190   0.41302   0.08755
C          C       0.35778   0.06386   0.66624   0.08746
C          C       0.14749   0.43738   0.65517   0.08541
C          C       0.10749   0.68827   0.90869   0.09035
C          C       0.88844   0.31340   0.90779   0.08614
C          C       0.36114   0.56535   0.16254   0.08871
C          C       0.13933   0.93636   0.15349   0.08222
C          C       0.57748   0.12453   0.33034   0.07659
C          C       0.42620   0.87705   0.32829   0.07919
C          C       0.82285   0.12632   0.57960   0.09224
C          C       0.67615   0.37529   0.58367   0.09466
C          C       0.56833   0.62578   0.83501   0.09281
C          C       0.42325   0.37689   0.83480   0.09103
C          C       0.82411   0.62524   0.07986   0.09140
C          C       0.68098   0.87240   0.07535   0.09103
C          C       0.07620   0.12599   0.83417   0.09178
C          C       0.92114   0.87287   0.84046   0.09281
C          C       0.32624   0.12434   0.09604   0.09112
C          C       0.17324   0.37265   0.06667   0.07868
C          C       0.07411   0.62718   0.33510   0.09283
C          C       0.92979   0.37527   0.32487   0.08909
C          C       0.32282   0.62492   0.59133   0.09402
C          C       0.17344   0.87422   0.57155   0.08410
C          C       0.62061   0.17696   0.79074  -0.08273
C          C       0.37916   0.82288   0.79195  -0.08336
C          C       0.87202   0.07528   0.02578  -0.08571
C          C       0.62982   0.42369   0.02820  -0.08376
C          C       0.61581   0.67560   0.28403  -0.08303
C          C       0.37732   0.32667   0.28365  -0.08394
C          C       0.87485   0.57407   0.52785  -0.08440
C          C       0.62582   0.92518   0.53596  -0.08738
C          C       0.12353   0.17709   0.28569  -0.08514
C          C       0.87363   0.82262   0.28826  -0.08264
C          C       0.37184   0.07467   0.54297  -0.08141
C          C       0.13240   0.42677   0.53098  -0.08314
C          C       0.12229   0.67692   0.78637  -0.08248
C          C       0.87760   0.32436   0.78323  -0.08511
C          C       0.37253   0.57644   0.03857  -0.08192
C          C       0.12650   0.92561   0.02911  -0.08717
C          C       0.62966   0.19380   0.68554  -0.14790
C          C       0.36926   0.80569   0.68764  -0.14861
C          C       0.87878   0.05787   0.92190  -0.14828
C          C       0.62446   0.44132   0.92451  -0.14615
C          C       0.62631   0.69279   0.18062  -0.14913
C          C       0.37154   0.30932   0.17897  -0.14484
C          C       0.88163   0.55651   0.42411  -0.14515
C          C       0.62070   0.94264   0.43182  -0.14707
C          C       0.12957   0.19512   0.18412  -0.14434
C          C       0.86605   0.80529   0.18402  -0.14652
C          C       0.38112   0.05732   0.43948  -0.14801
C          C       0.12314   0.44360   0.42532  -0.14778
C          C       0.13066   0.69385   0.68171  -0.14927
C          C       0.86906   0.30711   0.67913  -0.14820
C          C       0.38043   0.55906   0.93432  -0.14546
C          C       0.11934   0.94245   0.92316  -0.14712
C          C       0.60084   0.09718   0.34396  -0.08619
C          C       0.40548   0.90473   0.34166  -0.08373
C          C       0.84411   0.15287   0.58958  -0.11206
C          C       0.65335   0.34893   0.59437  -0.11280
C          C       0.59166   0.59925   0.84655  -0.11051
C          C       0.40108   0.40351   0.84537  -0.11249
C          C       0.84303   0.65206   0.09263  -0.11239
C          C       0.65831   0.84606   0.08596  -0.11281
C          C       0.09767   0.09924   0.84339  -0.11268
C          C       0.89929   0.89962   0.85014  -0.11151
C          C       0.34804   0.15088   0.10526  -0.11179
C          C       0.15027   0.34552   0.08138  -0.08529
C          C       0.09553   0.60042   0.34385  -0.11466
C          C       0.90905   0.40213   0.33214  -0.11369
C          C       0.34399   0.65160   0.59890  -0.11341
C          C       0.15128   0.84691   0.58599  -0.09144
C          C       0.59151   0.08368   0.45837  -0.15492
C          C       0.41071   0.91746   0.45988  -0.15454
C          C       0.83598   0.16647   0.70614  -0.15313
C          C       0.66208   0.33480   0.70885  -0.15258
C          C       0.58486   0.58569   0.96256  -0.15143
C          C       0.40909   0.41725   0.96091  -0.15517
C          C       0.83557   0.66511   0.21068  -0.15534
C          C       0.66492   0.83277   0.20304  -0.15325
C          C       0.09032   0.08527   0.95856  -0.15597
C          C       0.90666   0.91355   0.96551  -0.15462
C          C       0.34196   0.16491   0.22072  -0.15549
C          C       0.15534   0.33307   0.19986  -0.15524
C          C       0.08922   0.58642   0.45912  -0.15499
C          C       0.91687   0.41620   0.44711  -0.15529
C          C       0.33642   0.66576   0.71361  -0.15311
C          C       0.15600   0.83406   0.70346  -0.15247
C          C       0.64840   0.18366   0.56807   0.02977
C          C       0.35230   0.81567   0.56886   0.02760
C          C       0.89811   0.06734   0.80412   0.02795
C          C       0.60489   0.43230   0.80572   0.02609
C          C       0.64493   0.68282   0.06284   0.02722
C          C       0.35341   0.31878   0.06003   0.02345
C          C       0.89861   0.56598   0.30478   0.02785
C          C       0.60630   0.93298   0.31133   0.02377
C          C       0.14683   0.18606   0.06390   0.02654
C          C       0.84849   0.81508   0.06548   0.03005
C          C       0.40083   0.06697   0.32233   0.02687
C          C       0.10341   0.43339   0.30861   0.02779
C          C       0.14959   0.68381   0.56457   0.02847
C          C       0.85322   0.31710   0.55990   0.02802
C          C       0.39898   0.56854   0.81596   0.02764
C          C       0.09926   0.93247   0.80637   0.02550
C          C       0.65662   0.15569   0.55823  -0.11108
C          C       0.34792   0.84366   0.55552  -0.11173
C          C       0.90783   0.09509   0.79195  -0.11130
C          C       0.59423   0.40462   0.79186  -0.11027
C          C       0.65432   0.65489   0.05085  -0.11056
C          C       0.34387   0.34659   0.04663  -0.11179
C          C       0.90757   0.59380   0.29138  -0.11277
C          C       0.59791   0.90512   0.29653  -0.11060
C          C       0.15548   0.15821   0.04707  -0.11351
C          C       0.84035   0.84299   0.05251  -0.11531
C          C       0.40850   0.09482   0.31062  -0.11192
C          C       0.09556   0.40547   0.29853  -0.11040
C          C       0.15821   0.65595   0.55372  -0.11274
C          C       0.84700   0.34509   0.54617  -0.11243
C          C       0.40848   0.59632   0.80469  -0.11247
C          C       0.08865   0.90465   0.79688  -0.10844
C          C       0.64729   0.13855   0.65921  -0.22784
C          C       0.35787   0.86103   0.65529  -0.22165
C          C       0.90033   0.11279   0.89144  -0.22130
C          C       0.60081   0.38670   0.89101  -0.22275
C          C       0.64350   0.63754   0.14992  -0.21930
C          C       0.34955   0.36423   0.14680  -0.21713
C          C       0.89980   0.61159   0.39059  -0.22123
C          C       0.60333   0.88750   0.39653  -0.21614
C          C       0.14842   0.14000   0.14460  -0.22091
C          C       0.84800   0.86051   0.15261  -0.22062
C          C       0.39773   0.11250   0.40948  -0.21844
C          C       0.10390   0.38842   0.40022  -0.22714
C          C       0.14989   0.63870   0.65437  -0.22048
C          C       0.85591   0.36253   0.64653  -0.22160
C          C       0.39911   0.61399   0.90426  -0.22312
C          C       0.09653   0.88751   0.89846  -0.22594
C          C       0.62997   0.14881   0.77810   0.29926
C          C       0.37093   0.85104   0.77644   0.29841
C          C       0.88292   0.10307   0.01029   0.30230
C          C       0.61694   0.39596   0.01193   0.29921
C          C       0.62378   0.64753   0.26747   0.29712
C          C       0.36549   0.35452   0.26712   0.30036
C          C       0.88419   0.60201   0.51096   0.29950
C          C       0.61704   0.89722   0.51783   0.30103
C          C       0.13432   0.14925   0.26677   0.30194
C          C       0.86386   0.85067   0.27284   0.29432
C          C       0.37924   0.10278   0.52804   0.29858
C          C       0.12048   0.39876   0.51914   0.30051
C          C       0.13253   0.64889   0.77277   0.30016
C          C       0.86986   0.35240   0.76696   0.30075
C          C       0.38122   0.60448   0.02347   0.29852
C          C       0.11447   0.89771   0.01672   0.30163
C          C       0.60706   0.05664   0.47519   0.02933
C          C       0.39701   0.94466   0.47761   0.03184
C          C       0.85145   0.19313   0.72216   0.01634
C          C       0.64482   0.30828   0.72432   0.01487
C          C       0.60413   0.55935   0.98010   0.01389
C          C       0.39324   0.44400   0.97585   0.01843
C          C       0.85010   0.69185   0.22761   0.01604
C          C       0.64564   0.80664   0.22097   0.01828
C          C       0.10489   0.05833   0.97033   0.01552
C          C       0.89213   0.94048   0.97774   0.01714
C          C       0.35744   0.19167   0.23293   0.01763
C          C       0.14146   0.30611   0.21860   0.02814
C          C       0.10532   0.55956   0.47141   0.01693
C          C       0.90162   0.44303   0.46018   0.01715
C          C       0.35201   0.69253   0.72722   0.01599
C          C       0.14021   0.80719   0.72139   0.02831
C          C       0.63426   0.04296   0.37072  -0.10132
C          C       0.37389   0.95902   0.37187  -0.10165
C          C       0.87905   0.20654   0.61590  -0.08904
C          C       0.61608   0.29530   0.61744  -0.09242
C          C       0.63131   0.54589   0.87338  -0.09117
C          C       0.36689   0.45768   0.86871  -0.09000
C          C       0.87435   0.70615   0.12096  -0.09296
C          C       0.61583   0.79351   0.11613  -0.08669
C          C       0.12922   0.04487   0.86070  -0.09466
C          C       0.86868   0.95403   0.86828  -0.09458
C          C       0.38364   0.20464   0.12428  -0.09125
C          C       0.11900   0.29143   0.11343  -0.10080
C          C       0.13116   0.54635   0.36225  -0.09214
C          C       0.87661   0.45634   0.35126  -0.09182
C          C       0.37850   0.70554   0.61859  -0.09216
C          C       0.11554   0.79337   0.61506  -0.09992
C          C       0.64604   0.05603   0.25687  -0.21776
C          C       0.36709   0.94686   0.25436  -0.21475
C          C       0.88938   0.19389   0.50209  -0.22562
C          C       0.60544   0.30850   0.50493  -0.22915
C          C       0.63902   0.55830   0.75810  -0.22903
C          C       0.35693   0.44494   0.75473  -0.22939
C          C       0.88253   0.69416   0.00485  -0.22792
C          C       0.60763   0.80581   0.00083  -0.22644
C          C       0.13843   0.05780   0.74714  -0.22881
C          C       0.85972   0.94121   0.75445  -0.22800
C          C       0.39160   0.19159   0.01030  -0.22593
C          C       0.11145   0.30344   0.99582  -0.21402
C          C       0.13976   0.55953   0.24929  -0.22902
C          C       0.86783   0.44351   0.23729  -0.22828
C          C       0.38739   0.69231   0.50553  -0.22859
C          C       0.10876   0.80574   0.49785  -0.21806
C          C       0.62925   0.08313   0.24115   0.28786
C          C       0.38427   0.91997   0.23615   0.28791
C          C       0.87090   0.16671   0.48086   0.32755
C          C       0.62354   0.33586   0.48669   0.33011
C          C       0.61957   0.58570   0.73775   0.32826
C          C       0.37510   0.41733   0.73531   0.33177
C          C       0.86662   0.66667   0.98350   0.33141
C          C       0.63014   0.83245   0.97759   0.33142
C          C       0.12253   0.08567   0.73180   0.33159
C          C       0.87477   0.91333   0.73869   0.32508
C          C       0.37297   0.16412   0.99366   0.33168
C          C       0.12791   0.33024   0.97700   0.28886
C          C       0.12020   0.58695   0.23192   0.33322
C          C       0.88393   0.41572   0.22026   0.33089
C          C       0.36902   0.66500   0.48794   0.32796
C          C       0.12815   0.83228   0.48026   0.29356
C          C       0.63452   0.22430   0.42151  -0.14060
C          C       0.36159   0.77513   0.42096  -0.14140
C          C       0.88449   0.02695   0.65739  -0.14515
C          C       0.61784   0.47319   0.66003  -0.14432
C          C       0.63038   0.72359   0.91868  -0.14412
C          C       0.36668   0.27782   0.91443  -0.14151
C          C       0.88522   0.52553   0.15612  -0.14326
C          C       0.62163   0.97347   0.16474  -0.14380
C          C       0.13228   0.22598   0.91299  -0.14504
C          C       0.86096   0.77437   0.91883  -0.14233
C          C       0.38793   0.02693   0.17312  -0.14315
C          C       0.11411   0.47421   0.16580  -0.14040
C          C       0.13553   0.72486   0.42454  -0.14390
C          C       0.86644   0.27668   0.41216  -0.14575
C          C       0.38483   0.52790   0.66922  -0.14440
C          C       0.11396   0.97250   0.65800  -0.14351
C          C       0.66655   0.20075   0.45969   0.06390
C          C       0.33157   0.79898   0.46062   0.06682
C          C       0.91691   0.05004   0.69677   0.06210
C          C       0.58528   0.45028   0.70095   0.06157
C          C       0.66288   0.70011   0.95588   0.06299
C          C       0.33483   0.30132   0.95327   0.06540
C          C       0.91730   0.54859   0.19731   0.06161
C          C       0.58886   0.95048   0.20397   0.06614
C          C       0.16629   0.20360   0.95853   0.06333
C          C       0.82962   0.79797   0.95788   0.06053
C          C       0.42058   0.04976   0.21513   0.06366
C          C       0.08395   0.45033   0.20052   0.06444
C          C       0.16758   0.70106   0.45775   0.06185
C          C       0.83389   0.29985   0.45319   0.06214
C          C       0.41743   0.55096   0.70889   0.06260
C          C       0.08060   0.94976   0.69864   0.06418
C          C       0.72219   0.19320   0.39221  -0.12618
C          C       0.27700   0.80771   0.39239  -0.12965
C          C       0.97291   0.05720   0.63023  -0.12591
C          C       0.52723   0.44388   0.63933  -0.12688
C          C       0.71813   0.69248   0.88791  -0.12512
C          C       0.27913   0.30900   0.88611  -0.12871
C          C       0.97357   0.55584   0.13217  -0.12713
C          C       0.53268   0.94344   0.13780  -0.12878
C          C       0.22480   0.19674   0.89898  -0.12498
C          C       0.77432   0.80599   0.89060  -0.12607
C          C       0.47735   0.05689   0.15118  -0.12496
C          C       0.03027   0.44225   0.12894  -0.12619
C          C       0.22250   0.69366   0.38778  -0.12470
C          C       0.77688   0.30718   0.38962  -0.12704
C          C       0.47376   0.55780   0.64293  -0.12673
C          C       0.02325   0.94329   0.63444  -0.12591
C          C       0.74525   0.20842   0.29317  -0.13038
C          C       0.25279   0.79319   0.29171  -0.13684
C          C       0.99585   0.04203   0.53034  -0.13247
C          C       0.50303   0.45927   0.54146  -0.12812
C          C       0.74077   0.70764   0.78889  -0.13194
C          C       0.25536   0.29397   0.78691  -0.13094
C          C       0.99717   0.54076   0.03287  -0.13356
C          C       0.50874   0.95905   0.04083  -0.13190
C          C       0.24815   0.21145   0.79886  -0.12918
C          C       0.75055   0.79115   0.79096  -0.13101
C          C       0.50070   0.04196   0.05078  -0.13349
C          C       0.00783   0.45719   0.02793  -0.13362
C          C       0.24419   0.70919   0.28896  -0.13153
C          C       0.75266   0.29191   0.29182  -0.12865
C          C       0.49701   0.54240   0.54420  -0.13192
C          C       0.00048   0.95867   0.53524  -0.13303
C          C       0.71336   0.23186   0.25397   0.05330
C          C       0.28261   0.76935   0.25208   0.05551
C          C       0.96408   0.01879   0.49163   0.05619
C          C       0.53543   0.48207   0.49972   0.05363
C          C       0.70888   0.73114   0.75109   0.05464
C          C       0.28650   0.27034   0.74883   0.05359
C          C       0.96589   0.51759   0.99198   0.05764
C          C       0.54031   0.98231   0.00266   0.05253
C          C       0.21460   0.23384   0.75255   0.05738
C          C       0.78117   0.76747   0.75223   0.05629
C          C       0.46813   0.01925   0.00764   0.05402
C          C       0.03815   0.48091   0.99208   0.05323
C          C       0.21176   0.73274   0.25341   0.05492
C          C       0.78453   0.26860   0.25121   0.05486
C          C       0.46466   0.51941   0.50366   0.05676
C          C       0.03381   0.98133   0.49394   0.05547
C          C       0.65756   0.23954   0.32013  -0.14076
C          C       0.33772   0.76067   0.31787  -0.13875
C          C       0.90772   0.01163   0.55605  -0.14123
C          C       0.59314   0.48879   0.56073  -0.13980
C          C       0.65307   0.73881   0.81707  -0.14083
C          C       0.34287   0.26267   0.81344  -0.13909
C          C       0.90919   0.51031   0.05474  -0.14111
C          C       0.59775   0.98909   0.06484  -0.14261
C          C       0.15623   0.24080   0.81103  -0.14333
C          C       0.83706   0.75942   0.81721  -0.14001
C          C       0.41137   0.01201   0.07041  -0.13993
C          C       0.09179   0.48915   0.06283  -0.14140
C          C       0.15716   0.74043   0.32341  -0.14165
C          C       0.84210   0.26136   0.31218  -0.13935
C          C       0.40810   0.51247   0.56796  -0.14111
C          C       0.09083   0.98805   0.55727  -0.14290
C          C       0.53511   0.05309   0.66002  -0.11993
C          C       0.47008   0.94877   0.66094  -0.12093
C          C       0.78016   0.19776   0.90740  -0.12206
C          C       0.71767   0.30282   0.90738  -0.12429
C          C       0.53400   0.55475   0.16630  -0.12308
C          C       0.46820   0.44920   0.15467  -0.12315
C          C       0.77593   0.69699   0.40751  -0.12189
C          C       0.71878   0.80072   0.40190  -0.12432
C          C       0.02904   0.05178   0.14654  -0.12218
C          C       0.96628   0.94650   0.15611  -0.12149
C          C       0.28430   0.19751   0.41481  -0.12087
C          C       0.21702   0.30226   0.39772  -0.12028
C          C       0.03291   0.55343   0.65348  -0.12224
C          C       0.97447   0.44804   0.64271  -0.12404
C          C       0.27882   0.69826   0.90874  -0.12376
C          C       0.21158   0.80346   0.90740  -0.12203
C          C       0.58930   0.04329   0.59459   0.06739
C          C       0.41459   0.95798   0.59765   0.06875
C          C       0.83431   0.20691   0.84086   0.07033
C          C       0.66238   0.29421   0.84227   0.07028
C          C       0.58820   0.54551   0.09901   0.07118
C          C       0.41107   0.45757   0.09439   0.07195
C          C       0.83238   0.70536   0.34652   0.07065
C          C       0.66167   0.79302   0.34033   0.07049
C          C       0.08687   0.04401   0.08705   0.07164
C          C       0.91002   0.95500   0.09352   0.06984
C          C       0.33932   0.20620   0.34948   0.06800
C          C       0.15993   0.29350   0.33964   0.06915
C          C       0.08858   0.54505   0.58813   0.06864
C          C       0.91894   0.45701   0.57843   0.07119
C          C       0.33410   0.70690   0.84436   0.07131
C          C       0.15673   0.79410   0.84306   0.06555
C          C       0.62120   0.02092   0.64611  -0.14320
C          C       0.38273   0.98035   0.64989  -0.14358
C          C       0.86624   0.22917   0.89169  -0.14700
C          C       0.62998   0.27215   0.89318  -0.14704
C          C       0.61995   0.52277   0.14753  -0.14860
C          C       0.37657   0.47876   0.15031  -0.14665
C          C       0.86597   0.72675   0.40097  -0.14807
C          C       0.62582   0.77248   0.39633  -0.14525
C          C       0.12123   0.02258   0.14171  -0.14965
C          C       0.87742   0.97750   0.14246  -0.14782
C          C       0.37034   0.22898   0.39738  -0.14443
C          C       0.12693   0.27254   0.39853  -0.14649
C          C       0.12187   0.52274   0.63728  -0.14725
C          C       0.88570   0.47901   0.63080  -0.14897
C          C       0.36606   0.72908   0.89600  -0.14770
C          C       0.12426   0.77244   0.89781  -0.14580
C          C       0.59833   0.00859   0.75590  -0.14381
C          C       0.40671   0.99327   0.75779  -0.14439
C          C       0.84379   0.24187   0.00161  -0.14628
C          C       0.65293   0.25900   0.00172  -0.14431
C          C       0.59612   0.50926   0.25371  -0.14181
C          C       0.40011   0.49187   0.25832  -0.14452
C          C       0.84270   0.73974   0.50937  -0.14516
C          C       0.64776   0.75960   0.50629  -0.14483
C          C       0.09780   0.00912   0.24872  -0.14575
C          C       0.90143   0.99128   0.24778  -0.14795
C          C       0.34623   0.24263   0.50340  -0.14288
C          C       0.15153   0.26014   0.50741  -0.14424
C          C       0.09924   0.50910   0.74410  -0.14428
C          C       0.90801   0.49159   0.74098  -0.14387
C          C       0.34226   0.74229   0.00374  -0.14349
C          C       0.14805   0.75987   0.00730  -0.14408
C          C       0.54268   0.01786   0.81713   0.05754
C          C       0.46356   0.98457   0.81665   0.05932
C          C       0.78819   0.23321   0.06384   0.05928
C          C       0.70922   0.26717   0.06300   0.05710
C          C       0.53953   0.51771   0.31444   0.05475
C          C       0.45900   0.48437   0.31312   0.05756
C          C       0.78441   0.73227   0.56476   0.06022
C          C       0.70621   0.76663   0.56314   0.05956
C          C       0.03889   0.01641   0.30359   0.06073
C          C       0.95907   0.98320   0.30582   0.05924
C          C       0.29010   0.23430   0.56460   0.05565
C          C       0.21006   0.26814   0.56101   0.06219
C          C       0.04204   0.51689   0.80470   0.05952
C          C       0.96448   0.48299   0.80124   0.05711
C          C       0.28534   0.73427   0.06282   0.05625
C          C       0.20533   0.76816   0.06504   0.06050
C          C       0.51288   0.04086   0.76829  -0.12967
C          C       0.49358   0.96174   0.76643  -0.13135
C          C       0.75813   0.21045   0.01502  -0.12948
C          C       0.74009   0.28968   0.01353  -0.13070
C          C       0.51035   0.54113   0.26908  -0.13076
C          C       0.49106   0.46224   0.26025  -0.13100
C          C       0.75278   0.71022   0.51268  -0.13079
C          C       0.73974   0.78803   0.51011  -0.13181
C          C       0.00605   0.03827   0.25050  -0.13345
C          C       0.99007   0.96035   0.25829  -0.13022
C          C       0.26071   0.21113   0.51877  -0.13241
C          C       0.24094   0.28992   0.50487  -0.12922
C          C       0.01065   0.53973   0.75751  -0.13516
C          C       0.99646   0.46074   0.75011  -0.12974
C          C       0.25535   0.71151   0.01367  -0.13063
C          C       0.23487   0.79086   0.01453  -0.12732
C          C       0.49940   0.50091   0.40797   0.01915
C          C       0.74486   0.74943   0.65846   0.01530
C          C       0.50357   0.00111   0.91191   0.02089
C          C       0.74855   0.25015   0.15885   0.01934
C          C       0.00277   0.49951   0.89811   0.01770
C          C       0.24603   0.75124   0.15868   0.01916
C          C      -0.00075  -0.00006   0.39906   0.01459
C          C       0.25024   0.25172   0.65722   0.01648
N          N       0.60322   0.17245   0.01203  -0.23514
N          N       0.39375   0.82851   0.01379  -0.23473
N          N       0.85988   0.08008   0.24902  -0.24677
N          N       0.63833   0.41943   0.25305  -0.25465
N          N       0.59931   0.67083   0.50704  -0.25063
N          N       0.38773   0.33151   0.50799  -0.24846
N          N       0.86469   0.57947   0.75107  -0.24895
N          N       0.63602   0.91947   0.75884  -0.24446
N          N       0.11358   0.17180   0.50946  -0.25321
N          N       0.88753   0.82736   0.51117  -0.24924
N          N       0.35848   0.07888   0.76610  -0.24730
N          N       0.14872   0.42155   0.75169  -0.22674
N          N       0.10574   0.67319   0.00785  -0.25182
N          N       0.89054   0.32859   0.00706  -0.25105
N          N       0.35901   0.58053   0.26184  -0.25541
N          N       0.14097   0.92081   0.25133  -0.23001
N          N       0.58192   0.13754   0.22526  -0.24828
N          N       0.42531   0.86468   0.22040  -0.25559
N          N       0.82873   0.11241   0.47347  -0.18031
N          N       0.66826   0.38956   0.47963  -0.17788
N          N       0.57298   0.63956   0.72905  -0.17772
N          N       0.42005   0.36309   0.72822  -0.17841
N          N       0.82806   0.61211   0.97124  -0.18074
N          N       0.67795   0.88592   0.96820  -0.18129
N          N       0.07995   0.13989   0.72808  -0.18111
N          N       0.91641   0.85922   0.73389  -0.17920
N          N       0.32799   0.11060   0.98915  -0.17974
N          N       0.17384   0.38486   0.95879  -0.25396
N          N       0.07607   0.64091   0.22851  -0.17745
N          N       0.92415   0.36103   0.21995  -0.18275
N          N       0.32644   0.61116   0.48485  -0.17408
N          N       0.17318   0.88623   0.46327  -0.24897
O          O       0.62390   0.13207   0.87575  -0.41517
O          O       0.37351   0.86822   0.87367  -0.41652
O          O       0.87857   0.12010   0.10718  -0.40558
O          O       0.61805   0.37854   0.10811  -0.40127
O          O       0.61563   0.63017   0.36283  -0.40417
O          O       0.36744   0.37191   0.36327  -0.40089
O          O       0.88039   0.61947   0.60672  -0.40784
O          O       0.61991   0.87994   0.61347  -0.39937
O          O       0.13362   0.13185   0.36252  -0.40445
O          O       0.86777   0.86814   0.36905  -0.40260
O          O       0.36989   0.11988   0.62427  -0.40224
O          O       0.12327   0.38223   0.61802  -0.41757
O          O       0.12722   0.63182   0.86917  -0.40171
O          O       0.87332   0.36934   0.86451  -0.40375
O          O       0.37475   0.62197   0.11902  -0.40483
O          O       0.11809   0.88141   0.11607  -0.41490
O          O       0.63858   0.09516   0.12898  -0.41225
O          O       0.38267   0.90946   0.11862  -0.41101
O          O       0.87608   0.15539   0.37137  -0.49025
O          O       0.61536   0.34777   0.38041  -0.48987
O          O       0.62360   0.59788   0.63086  -0.48551
O          O       0.37184   0.40566   0.62760  -0.48605
O          O       0.87079   0.65593   0.87401  -0.48492
O          O       0.62746   0.84368   0.86854  -0.48602
O          O       0.12663   0.09792   0.62579  -0.48412
O          O       0.86987   0.90096   0.63241  -0.48251
O          O       0.37607   0.15201   0.88759  -0.48322
O          O       0.12524   0.34115   0.86033  -0.41197
O          O       0.12196   0.59880   0.12497  -0.48544
O          O       0.87949   0.40395   0.11344  -0.47751
O          O       0.37201   0.65343   0.37981  -0.48510
O          O       0.12655   0.84348   0.36475  -0.41161

