data_crystal

_audit_creation_method 'AiiDA-DDEC plugin'

_cell_length_a        49.23740
_cell_length_b        49.27747
_cell_length_c         8.01286

_cell_angle_alpha     90.27038
_cell_angle_beta     90.70064
_cell_angle_gamma     119.92030

_symmetry_space_group_name_Hall 'P 1'
_symmetry_space_group_name_H-M  'P 1'

loop_
_symmetry_equiv_pos_as_xyz
 'x,y,z'

loop_
_atom_site_label
_atom_site_type_symbol
_atom_site_fract_x
_atom_site_fract_y
_atom_site_fract_z
_atom_site_charge
H          H       0.43777   0.47441   0.31061   0.10130
H          H       0.52571   0.96552   0.30127   0.10129
H          H       0.03571   0.56100   0.30327   0.10118
H          H       0.56159   0.52733   0.30619   0.10133
H          H       0.47267   0.03658   0.29662   0.10149
H          H       0.96440   0.43740   0.29702   0.10114
H          H       0.51966   0.48584   0.25069   0.10013
H          H       0.51516   0.03696   0.27146   0.09979
H          H       0.96399   0.47948   0.25185   0.09986
H          H       0.47993   0.51729   0.30086   0.10021
H          H       0.48342   0.96525   0.26325   0.10026
H          H       0.03573   0.51912   0.27311   0.10003
H          H       0.49466   0.43180   0.23709   0.10501
H          H       0.56926   0.06525   0.24358   0.10491
H          H       0.93583   0.50579   0.23042   0.10438
H          H       0.50568   0.57160   0.25842   0.10481
H          H       0.42910   0.93663   0.24060   0.10411
H          H       0.06398   0.49331   0.23568   0.10486
H          H       0.39544   0.37425   0.30277   0.10293
H          H       0.62598   0.02188   0.28954   0.10316
H          H       0.97971   0.60544   0.29959   0.10321
H          H       0.60606   0.62760   0.29070   0.10342
H          H       0.37235   0.97981   0.29270   0.10347
H          H       0.02102   0.39359   0.28542   0.10315
H          H       0.34680   0.45932   0.50017   0.10931
H          H       0.54159   0.88907   0.48335   0.11106
H          H       0.11390   0.65241   0.48948   0.11116
H          H       0.65298   0.54061   0.48263   0.10752
H          H       0.45979   0.11378   0.48828   0.10811
H          H       0.88807   0.34706   0.48292   0.11140
H          H       0.39851   0.46303   0.48047   0.10589
H          H       0.53787   0.93711   0.46424   0.10608
H          H       0.06539   0.60098   0.46951   0.10637
H          H       0.60184   0.53807   0.46240   0.10571
H          H       0.46230   0.06515   0.46669   0.10611
H          H       0.93629   0.39834   0.46085   0.10638
H          H       0.35713   0.37856   0.18160   0.10890
H          H       0.62021   0.97918   0.16137   0.10846
H          H       0.02174   0.64223   0.17700   0.10879
H          H       0.64309   0.62174   0.16868   0.10841
H          H       0.37731   0.02283   0.16981   0.10961
H          H       0.97792   0.35553   0.16779   0.10949
H          H       0.30518   0.37447   0.20578   0.14691
H          H       0.62419   0.93113   0.18344   0.14092
H          H       0.07015   0.69387   0.20080   0.14277
H          H       0.69470   0.62474   0.19338   0.14272
H          H       0.37433   0.07135   0.19586   0.14185
H          H       0.92983   0.30398   0.19492   0.14695
H          H       0.40541   0.34629   0.09731   0.10746
H          H       0.65381   0.06033   0.09661   0.10727
H          H       0.94113   0.59629   0.10246   0.10799
H          H       0.59512   0.65663   0.10842   0.10833
H          H       0.34193   0.93924   0.10560   0.10810
H          H       0.05999   0.40366   0.09341   0.11041
H          H       0.49106   0.38906   0.38850   0.10883
H          H       0.61255   0.10326   0.39084   0.10836
H          H       0.89811   0.51054   0.37817   0.10934
H          H       0.51100   0.61402   0.39705   0.10898
H          H       0.38825   0.89946   0.38723   0.11083
H          H       0.10202   0.48905   0.38406   0.10918
H          H       0.49444   0.34066   0.35931   0.14318
H          H       0.66074   0.15492   0.36276   0.14658
H          H       0.84654   0.50769   0.34903   0.14202
H          H       0.50667   0.66176   0.36884   0.14039
H          H       0.34061   0.84707   0.36330   0.14199
H          H       0.15410   0.49328   0.35690   0.14307
H          H       0.40891   0.29827   0.06742   0.10724
H          H       0.70197   0.11182   0.07041   0.10948
H          H       0.88982   0.59358   0.07419   0.10894
H          H       0.59115   0.70450   0.08355   0.11161
H          H       0.29443   0.88710   0.08317   0.10987
H          H       0.11189   0.40784   0.06719   0.10931
H          H       0.79141   0.27146   0.12378   0.14363
H          H       0.72832   0.51937   0.13229   0.14515
H          H       0.48141   0.20979   0.13988   0.14520
H          H       0.20955   0.72672   0.15108   0.14407
H          H       0.27235   0.48046   0.14315   0.14536
H          H       0.51995   0.79259   0.12193   0.14419
H          H       0.79874   0.18755   0.42553   0.14440
H          H       0.81423   0.61495   0.40459   0.14511
H          H       0.38607   0.20143   0.39348   0.14345
H          H       0.20039   0.81276   0.41924   0.14434
H          H       0.18624   0.38593   0.40403   0.14471
H          H       0.61172   0.80058   0.43103   0.14458
H          H       0.84556   0.30904   0.30877   0.09167
H          H       0.69175   0.53597   0.32164   0.08892
H          H       0.46413   0.15653   0.32308   0.09047
H          H       0.15528   0.69003   0.31765   0.09194
H          H       0.30888   0.46279   0.31410   0.09310
H          H       0.53700   0.84738   0.29334   0.09240
H          H       0.85738   0.29750   0.12638   0.08214
H          H       0.70011   0.55714   0.13301   0.08347
H          H       0.44199   0.14356   0.13469   0.08255
H          H       0.14267   0.70093   0.13497   0.08077
H          H       0.29785   0.43865   0.13304   0.08088
H          H       0.56117   0.85912   0.11582   0.08147
H          H       0.73298   0.16222   0.42732   0.08230
H          H       0.84379   0.57985   0.39862   0.08568
H          H       0.41938   0.26501   0.38287   0.08702
H          H       0.26701   0.83899   0.43313   0.08177
H          H       0.16182   0.42825   0.42303   0.08131
H          H       0.56921   0.73406   0.44268   0.08094
H          H       0.74450   0.14992   0.24700   0.09193
H          H       0.85003   0.59770   0.20087   0.08802
H          H       0.40457   0.25424   0.17632   0.08374
H          H       0.25421   0.84934   0.24937   0.09336
H          H       0.14956   0.40443   0.24088   0.09206
H          H       0.59455   0.74541   0.27021   0.09438
H          H       0.43735   0.47225   0.80957   0.10213
H          H       0.52617   0.96454   0.80198   0.10132
H          H       0.03574   0.56177   0.80140   0.10150
H          H       0.56104   0.52485   0.80697   0.10104
H          H       0.47312   0.03559   0.79825   0.10155
H          H       0.96474   0.43829   0.79974   0.10163
H          H       0.51918   0.48314   0.76180   0.09980
H          H       0.51581   0.03599   0.76293   0.09995
H          H       0.96436   0.47992   0.75612   0.09996
H          H       0.47924   0.51485   0.78921   0.10016
H          H       0.48402   0.96427   0.76870   0.09951
H          H       0.03610   0.51996   0.77528   0.10016
H          H       0.49371   0.42900   0.73978   0.10529
H          H       0.56991   0.06398   0.73458   0.10427
H          H       0.93579   0.50567   0.73589   0.10515
H          H       0.50517   0.56910   0.75445   0.10434
H          H       0.42996   0.93565   0.74208   0.10397
H          H       0.06440   0.49411   0.74103   0.10463
H          H       0.39414   0.37200   0.79459   0.10316
H          H       0.62649   0.02062   0.79077   0.10304
H          H       0.97900   0.60545   0.79549   0.10361
H          H       0.60543   0.62511   0.79737   0.10374
H          H       0.37285   0.97847   0.79153   0.10380
H          H       0.02115   0.39429   0.78650   0.10322
H          H       0.34674   0.45807  -0.00339   0.10898
H          H       0.53974   0.88649   0.96954   0.11074
H          H       0.11299   0.65274   0.99388   0.10980
H          H       0.65240   0.53794   0.98231   0.10881
H          H       0.45865   0.11199   0.99084   0.10873
H          H       0.88818   0.34756   0.98318   0.10911
H          H       0.39824   0.46131   0.97546   0.10632
H          H       0.53664   0.93479   0.95493   0.10612
H          H       0.06435   0.60147   0.97308   0.10608
H          H       0.60117   0.53542   0.96470   0.10572
H          H       0.46185   0.06368   0.96873   0.10624
H          H       0.93637   0.39893   0.96182   0.10591
H          H       0.35595   0.37663   0.67825   0.10842
H          H       0.62163   0.97842   0.67299   0.10922
H          H       0.02175   0.64269   0.67185   0.10895
H          H       0.64232   0.61960   0.67487   0.10935
H          H       0.37786   0.02125   0.66373   0.10856
H          H       0.97816   0.35645   0.66763   0.10870
H          H       0.30419   0.37300   0.70407   0.14244
H          H       0.62527   0.93037   0.69337   0.14741
H          H       0.07034   0.69430   0.69668   0.14648
H          H       0.69392   0.62263   0.69755   0.14293
H          H       0.37444   0.06964   0.68880   0.14282
H          H       0.93015   0.30491   0.69313   0.14176
H          H       0.40439   0.34441   0.58946   0.10785
H          H       0.65600   0.05956   0.60483   0.10859
H          H       0.94021   0.59450   0.59053   0.11012
H          H       0.59525   0.65478   0.61603   0.10819
H          H       0.34341   0.93864   0.60176   0.10748
H          H       0.05997   0.40417   0.59687   0.10806
H          H       0.48905   0.38567   0.88847   0.11006
H          H       0.61186   0.10197   0.87880   0.10858
H          H       0.89810   0.51115   0.88667   0.10865
H          H       0.50986   0.61103   0.89404   0.10808
H          H       0.38828   0.89823   0.89062   0.10852
H          H       0.10243   0.48984   0.88514   0.10852
H          H       0.49237   0.33734   0.85458   0.14037
H          H       0.65971   0.15385   0.85481   0.14243
H          H       0.84619   0.50743   0.85085   0.14221
H          H       0.50578   0.65898   0.86895   0.14281
H          H       0.34009   0.84608   0.86667   0.14234
H          H       0.15429   0.49349   0.86073   0.14708
H          H       0.40755   0.29622   0.55669   0.10686
H          H       0.70381   0.11126   0.58248   0.10974
H          H       0.88853   0.59076   0.55501   0.10932
H          H       0.59123   0.70257   0.59219   0.11055
H          H       0.29541   0.88681   0.57969   0.11123
H          H       0.11158   0.40764   0.57427   0.10949
H          H       0.79036   0.27194   0.64237   0.14529
H          H       0.72760   0.51792   0.61951   0.14392
H          H       0.48000   0.20751   0.63714   0.14456
H          H       0.20892   0.72697   0.64367   0.14413
H          H       0.27176   0.47916   0.63724   0.14445
H          H       0.51745   0.78923   0.63949   0.14511
H          H       0.80067   0.18693   0.91150   0.14575
H          H       0.81308   0.61154   0.90789   0.14310
H          H       0.38499   0.19932   0.89406   0.14345
H          H       0.20080   0.81261   0.92425   0.14428
H          H       0.18649   0.38635   0.91413   0.14398
H          H       0.61391   0.80019   0.90770   0.14551
H          H       0.84544   0.30914   0.81244   0.09198
H          H       0.69084   0.53373   0.81123   0.09135
H          H       0.46328   0.15485   0.82607   0.09028
H          H       0.15551   0.69041   0.82551   0.09041
H          H       0.30851   0.46221   0.82234   0.09074
H          H       0.53627   0.84517   0.79412   0.09359
H          H       0.85686   0.29793   0.62776   0.08200
H          H       0.69971   0.55621   0.62749   0.08174
H          H       0.44166   0.14182   0.63610   0.08154
H          H       0.14294   0.70003   0.63815   0.08232
H          H       0.29834   0.43928   0.63691   0.08203
H          H       0.55966   0.85641   0.61375   0.08083
H          H       0.73446   0.16091   0.92618   0.08305
H          H       0.84146   0.57460   0.89961   0.08431
H          H       0.42075   0.26385   0.88970   0.08556
H          H       0.26731   0.83856   0.93375   0.08187
H          H       0.16037   0.42551   0.92084   0.08278
H          H       0.57239   0.73391   0.93748   0.08151
H          H       0.74538   0.14973   0.73994   0.09157
H          H       0.84968   0.59564   0.71131   0.08887
H          H       0.40259   0.25221   0.69033   0.08674
H          H       0.25463   0.84947   0.75151   0.09157
H          H       0.14971   0.40373   0.73138   0.09047
H          H       0.59476   0.74389   0.75353   0.09288
C          C       0.41304   0.42410   0.30767   0.07543
C          C       0.57602   0.99030   0.29432   0.07611
C          C       0.01110   0.58673   0.30116   0.07713
C          C       0.58742   0.57759   0.29719   0.07538
C          C       0.42236   0.01156   0.29523   0.07635
C          C       0.98930   0.41192   0.29105   0.07450
C          C       0.44004   0.45361   0.30080  -0.18119
C          C       0.54667   0.98837   0.29161  -0.18001
C          C       0.01286   0.55928   0.29334  -0.18178
C          C       0.55989   0.54844   0.29678  -0.17927
C          C       0.45171   0.01362   0.28894  -0.18221
C          C       0.98725   0.43924   0.28664  -0.18060
C          C       0.46979   0.45687   0.27752   0.11937
C          C       0.54373   0.01520   0.27483   0.11990
C          C       0.98590   0.52975   0.27005   0.12093
C          C       0.53016   0.54581   0.28469   0.12030
C          C       0.45467   0.98681   0.27153   0.12112
C          C       0.01400   0.46889   0.26887   0.12135
C          C       0.49848   0.48718   0.27023  -0.13109
C          C       0.51355   0.01408   0.27112  -0.13156
C          C       0.98688   0.50065   0.26223  -0.13130
C          C       0.50109   0.51573   0.28556  -0.13293
C          C       0.48490   0.98806   0.26786  -0.13269
C          C       0.01285   0.49789   0.26755  -0.13271
C          C       0.47188   0.42958   0.25944  -0.18610
C          C       0.57122   0.04438   0.26027  -0.18662
C          C       0.95679   0.52839   0.25316  -0.18594
C          C       0.52856   0.57341   0.27153  -0.18557
C          C       0.42715   0.95751   0.25779  -0.18491
C          C       0.04320   0.47056   0.25338  -0.18668
C          C       0.44528   0.39968   0.26564   0.07797
C          C       0.60097   0.04710   0.26232   0.07784
C          C       0.95423   0.55547   0.26066   0.07648
C          C       0.55569   0.60299   0.26999   0.07613
C          C       0.39732   0.95459   0.26212   0.07699
C          C       0.04605   0.44364   0.25614   0.07906
C          C       0.41606   0.39730   0.29107  -0.18470
C          C       0.60301   0.01989   0.28052  -0.18355
C          C       0.98154   0.58443   0.28631  -0.18530
C          C       0.58495   0.60474   0.28400  -0.18507
C          C       0.39529   0.98183   0.28184  -0.18446
C          C       0.01892   0.41448   0.27580  -0.18469
C          C       0.32270   0.41644   0.35492   0.17006
C          C       0.58332   0.90728   0.33529   0.16931
C          C       0.09486   0.67637   0.34760   0.16994
C          C       0.67714   0.58296   0.33947   0.16977
C          C       0.41678   0.09555   0.34332   0.16859
C          C       0.90605   0.32234   0.34026   0.16846
C          C       0.34908   0.44166   0.42963  -0.17891
C          C       0.55864   0.90871   0.41109  -0.17863
C          C       0.09371   0.65009   0.42001  -0.18149
C          C       0.65080   0.55824   0.41192  -0.17773
C          C       0.44181   0.09394   0.41704  -0.17881
C          C       0.90771   0.34901   0.41245  -0.18091
C          C       0.37835   0.44389   0.41698  -0.12418
C          C       0.55641   0.93576   0.39903  -0.12441
C          C       0.06639   0.62101   0.40725  -0.12478
C          C       0.62179   0.55669   0.39909  -0.12343
C          C       0.44334   0.06651   0.40353  -0.12379
C          C       0.93489   0.37801   0.39852  -0.12551
C          C       0.38190   0.42116   0.32884   0.05448
C          C       0.57867   0.96182   0.31082   0.05470
C          C       0.03980   0.61761   0.32138   0.05375
C          C       0.61836   0.57961   0.31308   0.05455
C          C       0.42012   0.04025   0.31548   0.05484
C          C       0.96084   0.38102   0.31149   0.05608
C          C       0.35495   0.39587   0.25599  -0.11133
C          C       0.60331   0.95982   0.23568  -0.11083
C          C       0.04155   0.64443   0.24971  -0.11129
C          C       0.64521   0.60427   0.24117  -0.11211
C          C       0.39504   0.04237   0.24367  -0.11163
C          C       0.95866   0.35378   0.24099  -0.11200
C          C       0.32562   0.39338   0.26848  -0.14837
C          C       0.60572   0.93289   0.24696  -0.14400
C          C       0.06868   0.67355   0.26195  -0.14338
C          C       0.67432   0.60610   0.25384  -0.14253
C          C       0.39322   0.06960   0.25702  -0.14203
C          C       0.93167   0.32467   0.25494  -0.14663
C          C       0.42463   0.34503   0.15795  -0.12316
C          C       0.65541   0.08082   0.15809  -0.12383
C          C       0.92062   0.57713   0.15933  -0.12494
C          C       0.57607   0.65780   0.16884  -0.12450
C          C       0.34173   0.91931   0.16459  -0.12305
C          C       0.08039   0.42309   0.15366  -0.12605
C          C       0.44787   0.37123   0.24586   0.05482
C          C       0.62959   0.07794   0.24567   0.05625
C          C       0.92345   0.55358   0.24204   0.05713
C          C       0.55332   0.63163   0.25433   0.05698
C          C       0.36883   0.92336   0.24747   0.05522
C          C       0.07708   0.44612   0.23994   0.05533
C          C       0.47330   0.36942   0.31517  -0.11427
C          C       0.63180   0.10511   0.31705  -0.11402
C          C       0.89625   0.52835   0.30751  -0.11356
C          C       0.52822   0.63346   0.32442  -0.11278
C          C       0.36803   0.89677   0.31653  -0.11505
C          C       0.10414   0.47159   0.31071  -0.11387
C          C       0.47540   0.34234   0.29962  -0.14318
C          C       0.65878   0.13422   0.30219  -0.14835
C          C       0.86721   0.52659   0.29206  -0.14272
C          C       0.52564   0.66025   0.30966  -0.14331
C          C       0.34136   0.86723   0.30400  -0.14415
C          C       0.13350   0.47414   0.29648  -0.14604
C          C       0.45193   0.31647   0.21209   0.17048
C          C       0.68417   0.13656   0.21432   0.16985
C          C       0.86489   0.55028   0.20936   0.16878
C          C       0.54847   0.68593   0.22360   0.16606
C          C       0.31471   0.86370   0.22020   0.17183
C          C       0.13629   0.45104   0.20953   0.17082
C          C       0.42666   0.31794   0.14052  -0.18072
C          C       0.68248   0.10986   0.14228  -0.17776
C          C       0.89162   0.57551   0.14260  -0.17882
C          C       0.57371   0.68472   0.15352  -0.17866
C          C       0.31495   0.88980   0.15083  -0.17966
C          C       0.10969   0.42552   0.13814  -0.17871
C          C       0.79339   0.25338   0.19084  -0.22253
C          C       0.74685   0.54047   0.19232  -0.22351
C          C       0.46037   0.20755   0.19576  -0.22359
C          C       0.20712   0.74529   0.21032  -0.22196
C          C       0.25379   0.45964   0.20105  -0.22507
C          C       0.54022   0.79478   0.18994  -0.22393
C          C       0.82175   0.25947   0.26495  -0.01809
C          C       0.74065   0.56257   0.26520  -0.01351
C          C       0.43787   0.17937   0.26508  -0.01419
C          C       0.17859   0.73950   0.27607  -0.01655
C          C       0.25942   0.43669   0.26683  -0.01522
C          C       0.56276   0.82335   0.26052  -0.01801
C          C       0.82309   0.23540   0.34806   0.20169
C          C       0.76529   0.58911   0.34064   0.20287
C          C       0.41145   0.17786   0.33565   0.20092
C          C       0.17676   0.76416   0.34991   0.20232
C          C       0.23468   0.41028   0.33727   0.20201
C          C       0.58835   0.82482   0.34501   0.20101
C          C       0.79676   0.20567   0.35872  -0.22529
C          C       0.79571   0.59389   0.34412  -0.22406
C          C       0.40707   0.20371   0.33693  -0.22275
C          C       0.20280   0.79421   0.35959  -0.22398
C          C       0.20480   0.40672   0.34577  -0.22442
C          C       0.59154   0.79842   0.36217  -0.22434
C          C       0.76841   0.19963   0.28515  -0.01564
C          C       0.80188   0.57181   0.27080  -0.01437
C          C       0.42935   0.23175   0.26597  -0.01612
C          C       0.23129   0.80003   0.29341  -0.01351
C          C       0.19926   0.42982   0.28141  -0.01532
C          C       0.56894   0.76985   0.29238  -0.01612
C          C       0.76700   0.22366   0.20188   0.20131
C          C       0.77728   0.54528   0.19523   0.20160
C          C       0.45592   0.23338   0.19672   0.20496
C          C       0.23312   0.77540   0.21916   0.20119
C          C       0.22389   0.45604   0.20890   0.20269
C          C       0.54346   0.76837   0.20645   0.20013
C          C       0.85045   0.29120   0.25707  -0.06528
C          C       0.70828   0.55827   0.26282  -0.06768
C          C       0.44159   0.15099   0.26414  -0.06488
C          C       0.15003   0.70762   0.26624  -0.06619
C          C       0.29125   0.43982   0.26268  -0.06734
C          C       0.55992   0.85214   0.24724  -0.06681
C          C       0.73972   0.16801   0.29601  -0.06573
C          C       0.83434   0.57637   0.27016  -0.06658
C          C       0.42482   0.25960   0.25848  -0.06556
C          C       0.25969   0.83200   0.30214  -0.06917
C          C       0.16772   0.42721   0.29171  -0.06690
C          C       0.57141   0.74096   0.31060  -0.06645
C          C       0.52098   0.71308   0.14002   0.59566
C          C       0.28760   0.80856   0.14456   0.59723
C          C       0.19136   0.47870   0.13841   0.59681
C          C       0.47893   0.28865   0.13445   0.59552
C          C       0.71175   0.19086   0.13149   0.59600
C          C       0.81039   0.52362   0.12266   0.59628
C          C       0.61081   0.87993   0.41477   0.59423
C          C       0.12204   0.73136   0.42021   0.59867
C          C       0.26754   0.38870   0.41952   0.60035
C          C       0.38998   0.12368   0.41632   0.59901
C          C       0.87828   0.26789   0.41958   0.59579
C          C       0.73181   0.60990   0.42147   0.59681
C          C       0.41216   0.42194   0.80332   0.07650
C          C       0.57646   0.98910   0.79507   0.07562
C          C       0.01076   0.58714   0.79950   0.07550
C          C       0.58676   0.57511   0.80111   0.07668
C          C       0.42280   0.01035   0.79445   0.07666
C          C       0.98952   0.41269   0.79301   0.07623
C          C       0.43936   0.45132   0.79876  -0.18152
C          C       0.54718   0.98731   0.79122  -0.18094
C          C       0.01278   0.55982   0.79271  -0.18077
C          C       0.55927   0.54592   0.79834  -0.18196
C          C       0.45225   0.01257   0.78963  -0.18031
C          C       0.98757   0.44006   0.78955  -0.18253
C          C       0.46907   0.45437   0.77793   0.11999
C          C       0.54434   0.01413   0.77150   0.11952
C          C       0.98595   0.53015   0.77195   0.11993
C          C       0.52956   0.54327   0.78354   0.11942
C          C       0.45532   0.98583   0.77239   0.12031
C          C       0.01439   0.46969   0.77252   0.12060
C          C       0.49789   0.48459   0.77322  -0.13151
C          C       0.51420   0.01311   0.76728  -0.13070
C          C       0.98716   0.50121   0.76541  -0.13274
C          C       0.50047   0.51320   0.78201  -0.13165
C          C       0.48555   0.98712   0.76900  -0.13306
C          C       0.01325   0.49867   0.77075  -0.13115
C          C       0.47094   0.42696   0.75997  -0.18556
C          C       0.57186   0.04318   0.75464  -0.18464
C          C       0.95668   0.52843   0.75620  -0.18567
C          C       0.52800   0.57089   0.76996  -0.18581
C          C       0.42786   0.95646   0.75892  -0.18592
C          C       0.04357   0.47134   0.75749  -0.18613
C          C       0.44411   0.39718   0.76269   0.07663
C          C       0.60160   0.04588   0.75910   0.07756
C          C       0.95391   0.55538   0.76114   0.07668
C          C       0.55511   0.60052   0.77142   0.07846
C          C       0.39801   0.95344   0.76246   0.07661
C          C       0.04633   0.44436   0.75908   0.07728
C          C       0.41492   0.39501   0.78565  -0.18629
C          C       0.60354   0.01866   0.78032  -0.18619
C          C       0.98108   0.58455   0.78441  -0.18463
C          C       0.58432   0.60227   0.78828  -0.18526
C          C       0.39583   0.98059   0.78118  -0.18430
C          C       0.01913   0.41523   0.77778  -0.18473
C          C       0.32224   0.41522   0.85161   0.16897
C          C       0.58280   0.90540   0.83247   0.16760
C          C       0.09456   0.67668   0.84661   0.16924
C          C       0.67643   0.58062   0.84149   0.16881
C          C       0.41618   0.09367   0.84156   0.16974
C          C       0.90622   0.32297   0.83972   0.17041
C          C       0.34881   0.44032   0.92566  -0.17700
C          C       0.55759   0.90657   0.90316  -0.18143
C          C       0.09307   0.65046   0.92184  -0.17902
C          C       0.65018   0.55575   0.91368  -0.17854
C          C       0.44110   0.09221   0.91758  -0.17792
C          C       0.90783   0.34957   0.91263  -0.18013
C          C       0.37794   0.44226   0.91237  -0.12507
C          C       0.55574   0.93386   0.89348  -0.12429
C          C       0.06567   0.62147   0.90877  -0.12480
C          C       0.62115   0.55419   0.90230  -0.12554
C          C       0.44303   0.06501   0.90379  -0.12571
C          C       0.93501   0.37863   0.89925  -0.12435
C          C       0.38115   0.41933   0.82427   0.05572
C          C       0.57882   0.96046   0.81208   0.05344
C          C       0.03937   0.61808   0.81987   0.05534
C          C       0.61770   0.57724   0.81783   0.05458
C          C       0.42022   0.03883   0.81361   0.05486
C          C       0.96102   0.38177   0.81240   0.05420
C          C       0.35401   0.39412   0.75228  -0.11246
C          C       0.60401   0.95871   0.74251  -0.11168
C          C       0.04137   0.64487   0.74630  -0.11220
C          C       0.64448   0.60207   0.74654  -0.11132
C          C       0.39524   0.04078   0.73907  -0.11215
C          C       0.95888   0.35462   0.74096  -0.11063
C          C       0.32481   0.39191   0.76554  -0.14194
C          C       0.60619   0.93167   0.75244  -0.14605
C          C       0.06859   0.67393   0.75894  -0.14569
C          C       0.67359   0.60391   0.75788  -0.14312
C          C       0.39314   0.06786   0.75207  -0.14417
C          C       0.93190   0.32550   0.75401  -0.14343
C          C       0.42336   0.34278   0.65066  -0.12374
C          C       0.65677   0.07998   0.66235  -0.12495
C          C       0.91985   0.57574   0.65068  -0.12686
C          C       0.57593   0.65569   0.67487  -0.12456
C          C       0.34268   0.91863   0.66289  -0.12350
C          C       0.08040   0.42348   0.65768  -0.12387
C          C       0.44644   0.36861   0.74164   0.05708
C          C       0.63018   0.07681   0.74298   0.05632
C          C       0.92298   0.55309   0.74101   0.05589
C          C       0.55283   0.62921   0.75672   0.05478
C          C       0.36945   0.92234   0.74792   0.05618
C          C       0.07729   0.44671   0.74290   0.05723
C          C       0.47152   0.36638   0.81234  -0.11329
C          C       0.63163   0.10397   0.80968  -0.11297
C          C       0.89598   0.52826   0.81057  -0.11295
C          C       0.52743   0.63078   0.82451  -0.11330
C          C       0.36822   0.89571   0.81898  -0.11441
C          C       0.10442   0.47214   0.81330  -0.11373
C          C       0.47351   0.33929   0.79445  -0.14285
C          C       0.65847   0.13323   0.79729  -0.14296
C          C       0.86675   0.52596   0.79113  -0.14458
C          C       0.52498   0.65765   0.81168  -0.14509
C          C       0.34129   0.86636   0.80640  -0.14401
C          C       0.13365   0.47438   0.80048  -0.14820
C          C       0.45024   0.31382   0.70400   0.16823
C          C       0.68466   0.13588   0.71661   0.16908
C          C       0.86412   0.54865   0.69991   0.16824
C          C       0.54815   0.68370   0.72919   0.17114
C          C       0.31495   0.86318   0.72087   0.16985
C          C       0.13620   0.45094   0.71568   0.16985
C          C       0.42523   0.31564   0.63150  -0.17945
C          C       0.68374   0.10921   0.64889  -0.17827
C          C       0.89067   0.57354   0.62986  -0.17900
C          C       0.57360   0.68266   0.66066  -0.17923
C          C       0.31567   0.88934   0.64927  -0.18003
C          C       0.10957   0.42555   0.64382  -0.17864
C          C       0.79303   0.25360   0.70194  -0.22383
C          C       0.74604   0.53859   0.68313  -0.22278
C          C       0.45902   0.20526   0.69384  -0.22151
C          C       0.20671   0.74544   0.70575  -0.22230
C          C       0.25335   0.45868   0.69838  -0.22366
C          C       0.53872   0.79206   0.69880  -0.22198
C          C       0.82193   0.25961   0.76772  -0.01565
C          C       0.73986   0.56049   0.75913  -0.01656
C          C       0.43676   0.17723   0.76507  -0.01724
C          C       0.17846   0.73954   0.77561  -0.01694
C          C       0.25925   0.43621   0.76911  -0.01441
C          C       0.56205   0.82119   0.75952  -0.01825
C          C       0.82408   0.23519   0.84143   0.20225
C          C       0.76440   0.58657   0.83834   0.20283
C          C       0.41031   0.17564   0.83568   0.20344
C          C       0.17694   0.76413   0.85269   0.20207
C          C       0.23475   0.41032   0.84466   0.20182
C          C       0.58895   0.82349   0.83232   0.20178
C          C       0.79801   0.20524   0.85147  -0.22394
C          C       0.79466   0.59097   0.84343  -0.22360
C          C       0.40590   0.20149   0.83702  -0.22095
C          C       0.20302   0.79416   0.86205  -0.22425
C          C       0.20488   0.40676   0.85249  -0.22287
C          C       0.59268   0.79736   0.84797  -0.22413
C          C       0.76911   0.19923   0.78549  -0.01763
C          C       0.80083   0.56912   0.76736  -0.01491
C          C       0.42815   0.22950   0.76540  -0.01790
C          C       0.23131   0.80002   0.79286  -0.01423
C          C       0.19905   0.42929   0.78271  -0.01789
C          C       0.56931   0.76822   0.78778  -0.01792
C          C       0.76700   0.22360   0.71117   0.20234
C          C       0.77634   0.54306   0.68761   0.20340
C          C       0.45449   0.23101   0.69377   0.20157
C          C       0.23277   0.77548   0.71485   0.20121
C          C       0.22343   0.45507   0.70585   0.20243
C          C       0.54255   0.76595   0.71323   0.20206
C          C       0.85041   0.29148   0.75887  -0.06681
C          C       0.70760   0.55643   0.75701  -0.06492
C          C       0.44083   0.14910   0.76526  -0.06685
C          C       0.15008   0.70752   0.76885  -0.06535
C          C       0.29118   0.43953   0.76637  -0.06648
C          C       0.55901   0.84989   0.74569  -0.06683
C          C       0.74058   0.16741   0.79485  -0.06642
C          C       0.83311   0.57333   0.76998  -0.06485
C          C       0.42397   0.25757   0.76221  -0.06228
C          C       0.25988   0.83185   0.80258  -0.06730
C          C       0.16722   0.42605   0.78996  -0.06627
C          C       0.57233   0.73959   0.80459  -0.06864
C          C       0.51964   0.71027   0.65544   0.59554
C          C       0.28737   0.80829   0.64189   0.59812
C          C       0.19074   0.47762   0.63704   0.59586
C          C       0.47693   0.28579   0.62340   0.59617
C          C       0.71176   0.19065   0.64095   0.59568
C          C       0.80943   0.52141   0.61356   0.59689
C          C       0.61111   0.87858   0.90119   0.59857
C          C       0.12239   0.73136   0.92549   0.59731
C          C       0.26755   0.38859   0.92603   0.59668
C          C       0.38878   0.12129   0.91264   0.59744
C          C       0.87927   0.26822   0.91160   0.59728
C          C       0.73134   0.60793   0.91757   0.59739
N          N       0.29290   0.41530   0.35923  -0.21322
N          N       0.58465   0.87875   0.34333  -0.21017
N          N       0.12350   0.70607   0.35722  -0.21158
N          N       0.70685   0.58392   0.34913  -0.20987
N          N       0.41609   0.12443   0.35111  -0.21155
N          N       0.87729   0.29282   0.34931  -0.21077
N          N       0.54716   0.71443   0.21225  -0.21008
N          N       0.28636   0.83368   0.21212  -0.21093
N          N       0.16606   0.45219   0.20013  -0.21164
N          N       0.45276   0.28777   0.19945  -0.20634
N          N       0.71287   0.16611   0.20310  -0.21169
N          N       0.83526   0.54942   0.19720  -0.20955
N          N       0.29258   0.41434   0.85745  -0.21087
N          N       0.58406   0.87682   0.83867  -0.21245
N          N       0.12331   0.70629   0.85541  -0.21241
N          N       0.70614   0.58156   0.84926  -0.21188
N          N       0.41524   0.12238   0.85039  -0.20985
N          N       0.87758   0.29330   0.84836  -0.21292
N          N       0.54670   0.71212   0.71829  -0.20972
N          N       0.28640   0.83338   0.71160  -0.21114
N          N       0.16587   0.45191   0.70699  -0.20912
N          N       0.45099   0.28507   0.69091  -0.20925
N          N       0.71315   0.16569   0.70848  -0.21029
N          N       0.83445   0.54761   0.68408  -0.21024
O          O       0.52000   0.74081   0.13427  -0.25182
O          O       0.26054   0.77937   0.15008  -0.25085
O          O       0.22021   0.47990   0.14187  -0.25145
O          O       0.47892   0.26043   0.12395  -0.25431
O          O       0.73962   0.21941   0.12611  -0.25366
O          O       0.78168   0.52263   0.11716  -0.25286
O          O       0.49930   0.68993   0.07472  -0.47978
O          O       0.31022   0.81010   0.07560  -0.48173
O          O       0.19031   0.50055   0.07513  -0.48008
O          O       0.50164   0.31194   0.08200  -0.47842
O          O       0.68859   0.18942   0.06637  -0.48084
O          O       0.81178   0.50194   0.05795  -0.48074
O          O       0.61191   0.85228   0.41671  -0.25064
O          O       0.14927   0.76037   0.41687  -0.25173
O          O       0.23831   0.38631   0.40270  -0.25187
O          O       0.38824   0.15092   0.40856  -0.25217
O          O       0.85032   0.23953   0.42443  -0.25219
O          O       0.76099   0.61190   0.41739  -0.25176
O          O       0.63240   0.90280   0.48260  -0.48024
O          O       0.09906   0.73002   0.48353  -0.48194
O          O       0.26891   0.36766   0.49105  -0.48253
O          O       0.36869   0.10119   0.48397  -0.48270
O          O       0.90132   0.26898   0.48404  -0.47977
O          O       0.73008   0.63090   0.49218  -0.48290
O          O       0.51840   0.73787   0.65033  -0.25139
O          O       0.25987   0.77944   0.64201  -0.25161
O          O       0.21937   0.47836   0.63355  -0.25249
O          O       0.47727   0.25775   0.61733  -0.25368
O          O       0.73926   0.21950   0.64196  -0.25082
O          O       0.78064   0.52038   0.60899  -0.25394
O          O       0.49731   0.68670   0.59781  -0.47827
O          O       0.31003   0.80959   0.57468  -0.48305
O          O       0.18937   0.49930   0.57354  -0.48106
O          O       0.49920   0.30877   0.56523  -0.47950
O          O       0.68865   0.18930   0.57544  -0.47999
O          O       0.81069   0.49957   0.55003  -0.48043
O          O       0.61336   0.85162   0.89263  -0.25056
O          O       0.14980   0.76021   0.92495  -0.25184
O          O       0.23857   0.38692   0.91698  -0.25105
O          O       0.38716   0.14863   0.90838  -0.25220
O          O       0.85196   0.23920   0.90841  -0.25111
O          O       0.76023   0.60936   0.91637  -0.25236
O          O       0.63270   0.90162   0.96771  -0.47950
O          O       0.09967   0.72995   0.99245  -0.48288
O          O       0.26896   0.36765  -0.00140  -0.48375
O          O       0.36715   0.09846   0.97609  -0.48178
O          O       0.90256   0.26979   0.97547  -0.47979
O          O       0.72999   0.62950   0.98391  -0.48101

