data_crystal

_audit_creation_method 'AiiDA-DDEC plugin'

_cell_length_a        49.78142
_cell_length_b        49.38756
_cell_length_c         7.99097

_cell_angle_alpha     98.40500
_cell_angle_beta     63.94397
_cell_angle_gamma     120.19313

_symmetry_space_group_name_Hall 'P 1'
_symmetry_space_group_name_H-M  'P 1'

loop_
_symmetry_equiv_pos_as_xyz
 'x,y,z'

loop_
_atom_site_label
_atom_site_type_symbol
_atom_site_fract_x
_atom_site_fract_y
_atom_site_fract_z
_atom_site_charge
H          H       0.43257   0.48932   0.28685   0.10492
H          H       0.51388   0.96984   0.28839   0.10319
H          H       0.03432   0.57082   0.29435   0.10701
H          H       0.55166   0.53084   0.34642   0.10825
H          H       0.47281   0.04980   0.27017   0.10186
H          H       0.95715   0.44816   0.26502   0.10380
H          H       0.50202   0.49022   0.37830   0.10349
H          H       0.51232   0.04508   0.26615   0.09705
H          H       0.97331   0.49690   0.15310   0.09908
H          H       0.48653   0.52950   0.20905   0.09873
H          H       0.48093   0.97518   0.19799   0.10042
H          H       0.02474   0.52512   0.32689   0.10379
H          H       0.47960   0.43785   0.31318   0.10928
H          H       0.56843   0.07056   0.22272   0.10198
H          H       0.94629   0.52529   0.17328   0.10145
H          H       0.51513   0.58230   0.20461   0.10260
H          H       0.42786   0.95103   0.19480   0.10143
H          H       0.05751   0.49949   0.26003   0.10846
H          H       0.38808   0.39048   0.22298   0.10298
H          H       0.61903   0.02073   0.21208   0.09904
H          H       0.98505   0.62171   0.30613   0.09876
H          H       0.61175   0.63144   0.24312   0.10050
H          H       0.37365   0.00075   0.26642   0.10104
H          H       0.01197   0.40037   0.22096   0.09892
H          H       0.35052   0.47839   0.10632   0.10932
H          H       0.52173   0.88259   0.26712   0.11130
H          H       0.12611   0.66337   0.21587   0.11278
H          H       0.64559   0.53404   0.30949   0.11340
H          H       0.47099   0.13359   0.09155   0.11000
H          H       0.87715   0.35719   0.19109   0.10956
H          H       0.40231   0.48271   0.09935   0.10211
H          H       0.52045   0.93030   0.23590   0.10314
H          H       0.07976   0.61636   0.16637   0.10342
H          H       0.59812   0.53264   0.28032   0.10352
H          H       0.47201   0.08370   0.06649   0.10287
H          H       0.92578   0.40821   0.18123   0.10244
H          H       0.34123   0.39440   0.43727   0.10764
H          H       0.60895   0.98528   0.35482   0.10467
H          H       0.00738   0.64714   0.51404   0.10167
H          H       0.63496   0.63034   0.38483   0.09833
H          H       0.37214   0.03947   0.52881   0.10666
H          H       0.96892   0.36147   0.30782   0.10583
H          H       0.28872   0.38950   0.43964   0.11681
H          H       0.61140   0.93718   0.37331   0.11709
H          H       0.05477   0.69545   0.55793   0.11110
H          H       0.68371   0.63172   0.40514   0.10975
H          H       0.37096   0.08993   0.55268   0.11424
H          H       0.92076   0.31021   0.30857   0.12003
H          H       0.38258   0.35174   0.42119   0.10663
H          H       0.65138   0.05872   0.28010   0.10325
H          H       0.94181   0.61901   0.33714   0.09993
H          H       0.61112   0.67086   0.25220   0.10222
H          H       0.32886   0.95398   0.36624   0.10275
H          H       0.03756   0.40665   0.41239   0.09963
H          H       0.48974   0.40409   0.04800   0.10137
H          H       0.61535   0.10933   0.12034   0.10235
H          H       0.91509   0.52888   0.11251   0.10351
H          H       0.52350   0.62170   0.12140   0.10295
H          H       0.40307   0.92486   0.02592   0.09914
H          H       0.10587   0.49124   0.03721   0.10208
H          H       0.49273   0.35433  -0.00362   0.11449
H          H       0.66547   0.15943   0.11954   0.11617
H          H       0.86582   0.52825   0.10723   0.11392
H          H       0.52445   0.67171   0.10924   0.11351
H          H       0.35679   0.87505   0.98690   0.11562
H          H       0.15603   0.48840   0.01623   0.11668
H          H       0.38586   0.30256   0.37575   0.11145
H          H       0.70169   0.10788   0.26633   0.11297
H          H       0.89341   0.61840   0.32712   0.10932
H          H       0.61258   0.72023   0.23206   0.11269
H          H       0.28302   0.90447   0.32648   0.11026
H          H       0.08671   0.40415   0.39673   0.11116
H          H       0.84163   0.24076   0.26771   0.12366
H          H       0.75172   0.61685   0.40896   0.11980
H          H       0.38984   0.17476   0.48969   0.11972
H          H       0.14631   0.76604   0.51739   0.11947
H          H       0.22189   0.39621   0.36563   0.12153
H          H       0.60696   0.85659   0.31557   0.12492
H          H       0.74412   0.22427   0.15720   0.11788
H          H       0.79477   0.54155   0.14364   0.12168
H          H       0.47264   0.26613   0.00676   0.12339
H          H       0.26656   0.80008   0.05128   0.12394
H          H       0.21583   0.47576   0.09289   0.11668
H          H       0.53152   0.75069   0.18578   0.11543
H          H       0.84817   0.31358   0.13445   0.06889
H          H       0.69826   0.54848   0.21645   0.07345
H          H       0.45319   0.16190   0.06787   0.07233
H          H       0.15779   0.71134   0.15330   0.07270
H          H       0.30632   0.46552   0.08984   0.06677
H          H       0.54030   0.85132   0.19562   0.07314
H          H       0.73870   0.15108   0.27260   0.07458
H          H       0.85254   0.61343   0.29637   0.07093
H          H       0.40729   0.27753   0.42587   0.07168
H          H       0.25558   0.85479   0.41284   0.07157
H          H       0.13150   0.40605   0.35103   0.07227
H          H       0.59835   0.75476   0.29535   0.07699
H          H       0.13163   0.34041   0.58161   0.11551
H          H       0.66701   0.83919   0.34395   0.11657
H          H       0.14318   0.81148   0.60043   0.09889
H          H       0.82118   0.67397   0.52072   0.11149
H          H       0.33507   0.20548   0.79547   0.11767
H          H       0.81618   0.15963   0.33734   0.12076
H          H       0.17390   0.34927   0.41085   0.09420
H          H       0.65994   0.85864   0.20660   0.10122
H          H       0.15128   0.79795   0.76114   0.10276
H          H       0.79627   0.66382   0.39053   0.09984
H          H       0.33918   0.17664   0.63589   0.09739
H          H       0.84559   0.19374   0.16793   0.09810
H          H       0.18200   0.35896   0.11155   0.10084
H          H       0.63885   0.82369   0.94681   0.09810
H          H       0.14793   0.78338   0.21032   0.11127
H          H       0.79716   0.63645   0.03663   0.10209
H          H       0.36346   0.16463   0.25438   0.10461
H          H       0.82168   0.17861   0.94880   0.10230
H          H       0.26692   0.52456   0.06684   0.10147
H          H       0.47777   0.74758   0.30467   0.09526
H          H       0.27013   0.75536   0.95550   0.09154
H          H       0.74491   0.49241   0.19668   0.09252
H          H       0.52350   0.26238   0.86790   0.10259
H          H       0.74053   0.26989   0.24270   0.10078
H          H       0.28436   0.49518   0.35024   0.10271
H          H       0.50779   0.73155   0.53362   0.11281
H          H       0.26237   0.75755   0.25966   0.10254
H          H       0.78466   0.50860   0.39254   0.11223
H          H       0.49739   0.22182   0.22765   0.10197
H          H       0.75684   0.24946   0.52700   0.10209
H          H       0.32019   0.52393   0.39724   0.11583
H          H       0.47471   0.74177   0.65807   0.11522
H          H       0.25034   0.71689   0.28212   0.11681
H          H       0.74109   0.47626   0.47665   0.11019
H          H       0.52788   0.21062   0.20436   0.11700
H          H       0.76738   0.28746   0.60856   0.12137
H          H       0.43890   0.46674   0.82702   0.10169
H          H       0.51715   0.94332   0.80392   0.10383
H          H       0.04180   0.55059   0.77530   0.10774
H          H       0.56070   0.50738   0.84297   0.10337
H          H       0.47546   0.02331   0.79136   0.10570
H          H       0.96199   0.42649   0.77244   0.10536
H          H       0.51640   0.46442   0.79961   0.10029
H          H       0.51370   0.01796   0.78185   0.10013
H          H       0.97671   0.47378   0.67592   0.10164
H          H       0.48794   0.50520   0.77172   0.09613
H          H       0.48355   0.94892   0.69629   0.09849
H          H       0.02942   0.50364   0.84202   0.10003
H          H       0.48848   0.41190   0.73968   0.10225
H          H       0.56803   0.04388   0.74747   0.10555
H          H       0.94838   0.50085   0.70185   0.10267
H          H       0.51770   0.55637   0.74260   0.09927
H          H       0.43376   0.92790   0.64304   0.10241
H          H       0.05921   0.47679   0.80225   0.10539
H          H       0.38758   0.36816   0.76007   0.10273
H          H       0.62054   0.99714   0.75607   0.09986
H          H       0.99645   0.60115   0.72356   0.09857
H          H       0.61496   0.60830   0.77210   0.09789
H          H       0.38597   0.98244   0.68665   0.10625
H          H       0.01334   0.37736   0.76799   0.10289
H          H       0.36189   0.46621   0.65216   0.11215
H          H       0.52905   0.85896   0.74701   0.11266
H          H       0.13204   0.65023   0.71023   0.10947
H          H       0.66242   0.51954   0.77351   0.11115
H          H       0.47833   0.11455   0.63783   0.10965
H          H       0.88564   0.34084   0.65815   0.11167
H          H       0.41069   0.46510   0.65273   0.09870
H          H       0.52618   0.90635   0.73711   0.10029
H          H       0.08927   0.59899   0.66128   0.10286
H          H       0.61167   0.51361   0.75848   0.09905
H          H       0.48276   0.06592   0.60038   0.10129
H          H       0.93459   0.38952   0.66412   0.10194
H          H       0.34216   0.37499   0.97550   0.10372
H          H       0.61206   0.95962   0.87978   0.10461
H          H       0.01212   0.62705   0.92463   0.10173
H          H       0.63726   0.60770   0.91709   0.10153
H          H       0.37501   0.01224   0.96008   0.10614
H          H       0.96617   0.33733   0.84959   0.10193
H          H       0.29257   0.37661   0.98048   0.11456
H          H       0.61607   0.91184   0.87795   0.11497
H          H       0.05512   0.67847   0.97287   0.11663
H          H       0.68889   0.61382   0.92534   0.11217
H          H       0.37096   0.06140   0.00405   0.11477
H          H       0.91753   0.28790   0.83213   0.11435
H          H       0.38832   0.33072   0.95402   0.10381
H          H       0.65280   0.03810   0.82224   0.10203
H          H       0.95138   0.59742   0.81529   0.10067
H          H       0.61645   0.64718   0.74881   0.10320
H          H       0.33999   0.93661   0.84128   0.10507
H          H       0.04569   0.38576   0.94311   0.10385
H          H       0.48607   0.37426   0.47642   0.10604
H          H       0.61406   0.08265   0.63539   0.10561
H          H       0.91974   0.50670   0.59904   0.10480
H          H       0.52339   0.59484   0.66938   0.10548
H          H       0.40676   0.90480   0.42941   0.10169
H          H       0.10479   0.47208   0.58887   0.10777
H          H       0.48677   0.32345   0.44354   0.11560
H          H       0.66319   0.13426   0.62064   0.11753
H          H       0.87116   0.50901   0.59694   0.11229
H          H       0.52603   0.64469   0.62727   0.11623
H          H       0.35581   0.85795   0.40539   0.11136
H          H       0.15866   0.47622   0.56070   0.11917
H          H       0.38886   0.28041   0.92078   0.11041
H          H       0.70215   0.08895   0.79836   0.10895
H          H       0.90490   0.60017   0.80308   0.11061
H          H       0.61940   0.69631   0.70002   0.11343
H          H       0.28990   0.89080   0.81437   0.11213
H          H       0.09857   0.38957   0.91576   0.11212
H          H       0.83974   0.22281   0.78460   0.11836
H          H       0.76998   0.60832   0.85647   0.12077
H          H       0.38921   0.14810   0.98563   0.12305
H          H       0.14525   0.75432   0.96756   0.12396
H          H       0.23329   0.38913   0.89363   0.11877
H          H       0.61097   0.83048   0.81099   0.11858
H          H       0.74211   0.20630   0.67590   0.12354
H          H       0.80854   0.52934   0.61449   0.11895
H          H       0.47051   0.23959   0.50316   0.11926
H          H       0.26553   0.78944   0.49815   0.11902
H          H       0.22918   0.46821   0.60261   0.12160
H          H       0.53613   0.72537   0.67100   0.12216
H          H       0.84391   0.29640   0.68281   0.07531
H          H       0.71537   0.53917   0.67012   0.06755
H          H       0.45421   0.13665   0.56671   0.07261
H          H       0.15843   0.69927   0.60595   0.07002
H          H       0.31815   0.45891   0.63965   0.07168
H          H       0.54253   0.82529   0.70616   0.07328
H          H       0.73750   0.13321   0.79522   0.06652
H          H       0.86901   0.59995   0.74701   0.07050
H          H       0.40802   0.25203   0.93398   0.07223
H          H       0.25585   0.84292   0.86638   0.07595
H          H       0.14404   0.39995   0.89348   0.06650
H          H       0.60030   0.72797   0.79579   0.07506
H          H       0.14274   0.33258   0.09109   0.11560
H          H       0.67134   0.81242   0.83233   0.11889
H          H       0.16220   0.82463   0.21234   0.11931
H          H       0.84196   0.66466   0.95781   0.11565
H          H       0.33427   0.17847   0.29715   0.11903
H          H       0.81410   0.14153   0.85413   0.11695
H          H       0.18315   0.34005   0.90020   0.10119
H          H       0.66470   0.83276   0.69817   0.09726
H          H       0.14296   0.80215   0.05784   0.09250
H          H       0.82106   0.65772   0.80859   0.09367
H          H       0.33775   0.15096   0.12586   0.10140
H          H       0.84380   0.17736   0.70180   0.09996
H          H       0.16851   0.36987   0.61729   0.10353
H          H       0.63499   0.85096   0.45661   0.11378
H          H       0.16322   0.83861   0.74025   0.11820
H          H       0.77718   0.64287   0.61401   0.11332
H          H       0.36620   0.19441   0.75815   0.10192
H          H       0.82713   0.19792   0.41399   0.10297
H          H       0.27730   0.51484   0.55869   0.09465
H          H       0.48360   0.72216   0.78252   0.09969
H          H       0.26907   0.74389   0.42635   0.09877
H          H       0.76620   0.48361   0.60032   0.10157
H          H       0.52084   0.23792   0.36920   0.09520
H          H       0.73815   0.25277   0.77419   0.09780
H          H       0.26609   0.50409   0.86249   0.10078
H          H       0.50253   0.75625   0.05520   0.09952
H          H       0.26196   0.77042   0.80226   0.10921
H          H       0.76758   0.51153   0.96349   0.10616
H          H       0.49795   0.24892   0.73825   0.10540
H          H       0.76184   0.26884   0.99442   0.10396
H          H       0.30635   0.53094   0.87039   0.11574
H          H       0.46969   0.76700   0.17346   0.11685
H          H       0.25014   0.72965   0.81212   0.11813
H          H       0.72266   0.48294   0.05248   0.11681
H          H       0.52654   0.23447   0.69847   0.11836
H          H       0.76995   0.30585   0.08951   0.11707
C          C       0.40641   0.43971   0.26005   0.07676
C          C       0.56617   0.99159   0.25770   0.07253
C          C       0.01292   0.59956   0.30029   0.07186
C          C       0.58505   0.58123   0.29886   0.08069
C          C       0.42303   0.02814   0.27236   0.07910
C          C       0.98048   0.42004   0.24457   0.07537
C          C       0.43344   0.46754   0.27729  -0.18668
C          C       0.53770   0.99177   0.26293  -0.17108
C          C       0.01435   0.57159   0.27579  -0.17264
C          C       0.55539   0.55320   0.30977  -0.17929
C          C       0.45209   0.02801   0.25631  -0.18913
C          C       0.97978   0.44835   0.25451  -0.18984
C          C       0.46016   0.46725   0.29631   0.11865
C          C       0.53883   0.02025   0.24368   0.11958
C          C       0.99016   0.54458   0.23190   0.10838
C          C       0.53036   0.55352   0.27290   0.11247
C          C       0.45401   0.00012   0.22990   0.11502
C          C       0.00761   0.47726   0.25665   0.11240
C          C       0.48857   0.49511   0.32044  -0.13942
C          C       0.51022   0.02188   0.24640  -0.13569
C          C       0.98985   0.51455   0.21460  -0.13620
C          C       0.50012   0.52523   0.26883  -0.13794
C          C       0.48271   0.99819   0.22304  -0.12583
C          C       0.00783   0.50719   0.26836  -0.14753
C          C       0.45972   0.43850   0.29245  -0.18984
C          C       0.56856   0.04875   0.22755  -0.18796
C          C       0.96451   0.54625   0.21008  -0.16867
C          C       0.53487   0.58258   0.23129  -0.18872
C          C       0.42654   0.97265   0.21365  -0.18393
C          C       0.03632   0.47747   0.25218  -0.18622
C          C       0.43431   0.41077   0.26244   0.07617
C          C       0.59774   0.04959   0.21842   0.07438
C          C       0.96134   0.57349   0.24042   0.06771
C          C       0.56361   0.61123   0.22476   0.07517
C          C       0.39716   0.97207   0.22759   0.07715
C          C       0.03791   0.44969   0.24027   0.07879
C          C       0.40766   0.41165   0.24943  -0.17841
C          C       0.59618   0.02066   0.22823  -0.18428
C          C       0.98584   0.59985   0.28699  -0.17289
C          C       0.58857   0.60979   0.25503  -0.18841
C          C       0.39552   0.00004   0.26067  -0.19253
C          C       0.00992   0.42151   0.23636  -0.18358
C          C       0.31558   0.43274   0.26919   0.20309
C          C       0.56798   0.90661   0.31344   0.20091
C          C       0.09398   0.68364   0.38420   0.20798
C          C       0.66925   0.58367   0.35125   0.21244
C          C       0.41992   0.11478   0.31941   0.20047
C          C       0.89570   0.32958   0.24721   0.20140
C          C       0.34808   0.45964   0.17802  -0.16454
C          C       0.54134   0.90506   0.28372  -0.17571
C          C       0.10030   0.66028   0.27920  -0.16173
C          C       0.64384   0.55541   0.32242  -0.16641
C          C       0.44900   0.11297   0.18583  -0.16554
C          C       0.89737   0.35787   0.21464  -0.17349
C          C       0.37744   0.46221   0.17529  -0.13437
C          C       0.54048   0.93227   0.26744  -0.12341
C          C       0.07393   0.63339   0.25454  -0.11414
C          C       0.61654   0.55462   0.30886  -0.10783
C          C       0.44984   0.08503   0.17400  -0.12493
C          C       0.92479   0.38688   0.21156  -0.11931
C          C       0.37589   0.43837   0.26279   0.05942
C          C       0.56556   0.96221   0.28391   0.05813
C          C       0.04002   0.62816   0.33444   0.06304
C          C       0.61295   0.58155   0.32411   0.05976
C          C       0.42196   0.05785   0.29352   0.06169
C          C       0.95168   0.38931   0.24250   0.05320
C          C       0.34331   0.41229   0.36025  -0.12903
C          C       0.59062   0.96317   0.32674  -0.13038
C          C       0.03352   0.65095   0.44531  -0.13516
C          C       0.63765   0.60937   0.36120  -0.13090
C          C       0.39342   0.05992   0.43054  -0.13001
C          C       0.94967   0.36099   0.27561  -0.12207
C          C       0.31389   0.40961   0.36376  -0.14288
C          C       0.59190   0.93617   0.34069  -0.15255
C          C       0.05986   0.67793   0.47149  -0.15756
C          C       0.66488   0.61028   0.37535  -0.15628
C          C       0.39263   0.08797   0.44460  -0.15577
C          C       0.92242   0.33188   0.27817  -0.15676
C          C       0.40685   0.35239   0.32990  -0.12543
C          C       0.65435   0.08048   0.24004  -0.12535
C          C       0.92566   0.59897   0.28421  -0.12713
C          C       0.59199   0.67048   0.21899  -0.11805
C          C       0.33518   0.93663   0.28510  -0.12549
C          C       0.06355   0.42441   0.32394  -0.12767
C          C       0.43610   0.38145   0.24018   0.06554
C          C       0.62870   0.07969   0.20393   0.05727
C          C       0.93264   0.57379   0.22821   0.06566
C          C       0.56646   0.64160   0.19493   0.05630
C          C       0.36942   0.94276   0.20441   0.06055
C          C       0.06812   0.44920   0.22795   0.06257
C          C       0.46717   0.38183   0.12174  -0.13056
C          C       0.63360   0.10878   0.15758  -0.13173
C          C       0.91034   0.54838   0.16391  -0.12754
C          C       0.54261   0.64289   0.15113  -0.12667
C          C       0.37663   0.92004   0.09680  -0.11755
C          C       0.10182   0.47249   0.11750  -0.12707
C          C       0.46899   0.35423   0.09219  -0.15186
C          C       0.66179   0.13702   0.15533  -0.14480
C          C       0.88240   0.54778   0.16059  -0.13988
C          C       0.54314   0.67102   0.14173  -0.15366
C          C       0.35094   0.89222   0.07344  -0.15343
C          C       0.12980   0.47096   0.10482  -0.15035
C          C       0.44000   0.32532   0.18719   0.20356
C          C       0.68688   0.13765   0.19598   0.19362
C          C       0.87522   0.57265   0.21897   0.20022
C          C       0.56743   0.69943   0.17690   0.19542
C          C       0.31655   0.88544   0.16332   0.20926
C          C       0.12525   0.44652   0.20409   0.19830
C          C       0.40876   0.32483   0.30534  -0.17382
C          C       0.68294   0.10858   0.23452  -0.16144
C          C       0.89788   0.59861   0.27958  -0.17160
C          C       0.59275   0.69875   0.20909  -0.16556
C          C       0.30921   0.90857   0.26513  -0.18344
C          C       0.09135   0.42307   0.31494  -0.16877
C          C       0.79229   0.25878   0.16975   0.19010
C          C       0.75340   0.55147   0.21385   0.19536
C          C       0.45755   0.21865   0.08793   0.18552
C          C       0.21344   0.76241   0.15355   0.19477
C          C       0.24944   0.46321   0.12475   0.18144
C          C       0.54070   0.79855   0.22656   0.19457
C          C       0.81993   0.26304   0.20196  -0.00543
C          C       0.74168   0.57353   0.28668  -0.01391
C          C       0.43356   0.19266   0.22669  -0.02069
C          C       0.17911   0.75304   0.28718  -0.01820
C          C       0.25069   0.44018   0.20328  -0.00862
C          C       0.56278   0.82880   0.26098  -0.00806
C          C       0.82005   0.23644   0.24348  -0.23222
C          C       0.76182   0.60085   0.35141  -0.24528
C          C       0.40728   0.19493   0.38510  -0.23822
C          C       0.17283   0.77401   0.41732  -0.23944
C          C       0.21974   0.41299   0.30579  -0.23439
C          C       0.59057   0.83309   0.28993  -0.24825
C          C       0.79365   0.20618   0.25296   0.19159
C          C       0.79303   0.60691   0.34005   0.19005
C          C       0.40368   0.22145   0.40322   0.20029
C          C       0.19936   0.80382   0.41261   0.18815
C          C       0.18826   0.40825   0.32897   0.19690
C          C       0.59675   0.80833   0.28355   0.18502
C          C       0.76572   0.20195   0.22335  -0.01356
C          C       0.80496   0.58500   0.26548  -0.00661
C          C       0.42777   0.24749   0.26482  -0.00428
C          C       0.23353   0.81312   0.27909  -0.00711
C          C       0.18708   0.43134   0.25005  -0.00683
C          C       0.57497   0.77816   0.24554  -0.01555
C          C       0.76577   0.22866   0.18079  -0.24799
C          C       0.78460   0.55748   0.20328  -0.23594
C          C       0.45461   0.24563   0.10870  -0.24354
C          C       0.24002   0.79209   0.15089  -0.24728
C          C       0.21802   0.45869   0.14969  -0.23211
C          C       0.54726   0.77398   0.21677  -0.23469
C          C       0.84738   0.29448   0.19433   0.09203
C          C       0.71028   0.56861   0.28707   0.08610
C          C       0.43548   0.16387   0.20551   0.08592
C          C       0.15095   0.72324   0.27915   0.08332
C          C       0.28326   0.44513   0.18408   0.09049
C          C       0.55737   0.85504   0.25860   0.08540
C          C       0.73772   0.17074   0.23299   0.08737
C          C       0.83704   0.59046   0.25822   0.07796
C          C       0.42518   0.27593   0.28771   0.08700
C          C       0.26134   0.84352   0.28294   0.08550
C          C       0.15493   0.42739   0.26841   0.08554
C          C       0.58044   0.75165   0.24007   0.08636
C          C       0.15835   0.35922   0.51259  -0.18435
C          C       0.64767   0.84206   0.32950  -0.18769
C          C       0.16091   0.81777   0.66445  -0.18484
C          C       0.80107   0.65460   0.48553  -0.18629
C          C       0.35312   0.19834   0.69158  -0.18484
C          C       0.82251   0.18332   0.30157  -0.18834
C          C       0.27950   0.51354   0.95357  -0.18367
C          C       0.48951   0.76451   0.18449  -0.17791
C          C       0.25236   0.74993   0.89349  -0.18534
C          C       0.74289   0.50175   0.08875  -0.17931
C          C       0.50926   0.24220   0.80448  -0.18778
C          C       0.76441   0.28198   0.11479  -0.18495
C          C       0.41011   0.41794   0.79374   0.07847
C          C       0.56872   0.96665   0.78651   0.07180
C          C       0.02145   0.57916   0.75824   0.07971
C          C       0.59120   0.55821   0.81266   0.07693
C          C       0.43084   0.00611   0.74138   0.07534
C          C       0.98370   0.39791   0.76912   0.07556
C          C       0.43920   0.44465   0.80011  -0.18376
C          C       0.54000   0.96577   0.78691  -0.18305
C          C       0.02156   0.55078   0.75629  -0.19148
C          C       0.56265   0.52944   0.81682  -0.17242
C          C       0.45695   0.00353   0.74981  -0.17375
C          C       0.98388   0.42649   0.77149  -0.18411
C          C       0.46790   0.44305   0.78069   0.11418
C          C       0.54000   0.99362   0.76750   0.11703
C          C       0.99534   0.52248   0.73402   0.11044
C          C       0.53614   0.52881   0.79052   0.10723
C          C       0.45874   0.97553   0.71284   0.11531
C          C       0.01098   0.45518   0.78202   0.11661
C          C       0.49850   0.47007   0.79064  -0.13586
C          C       0.51174   0.99485   0.76111  -0.12644
C          C       0.99400   0.49218   0.73106  -0.14534
C          C       0.50602   0.50043   0.78612  -0.13525
C          C       0.48541   0.97196   0.72418  -0.13587
C          C       0.01198   0.48532   0.78753  -0.13220
C          C       0.46678   0.41378   0.75292  -0.19189
C          C       0.56896   0.02260   0.75482  -0.17468
C          C       0.96875   0.52300   0.71567  -0.19615
C          C       0.53841   0.55750   0.76318  -0.18450
C          C       0.43328   0.94998   0.66753  -0.19487
C          C       0.03848   0.45494   0.78936  -0.17405
C          C       0.43787   0.38662   0.74810   0.07727
C          C       0.59839   0.02468   0.75091   0.07029
C          C       0.96801   0.55108   0.71731   0.07472
C          C       0.56637   0.58663   0.75827   0.06750
C          C       0.40608   0.95164   0.66485   0.07829
C          C       0.03983   0.42714   0.78260   0.07658
C          C       0.40962   0.38890   0.77020  -0.18778
C          C       0.59772   0.99629   0.76514  -0.18425
C          C       0.99498   0.57881   0.73521  -0.18041
C          C       0.59233   0.58621   0.78309  -0.16478
C          C       0.40556   0.98006   0.69973  -0.17812
C          C       0.01203   0.39883   0.77556  -0.18306
C          C       0.32347   0.42064   0.81198   0.19918
C          C       0.57375   0.88194   0.80738   0.19410
C          C       0.09668   0.66839   0.83813   0.21236
C          C       0.68074   0.56812   0.83946   0.20684
C          C       0.42380   0.09092   0.81730   0.20511
C          C       0.89761   0.31016   0.74592   0.19340
C          C       0.35720   0.44609   0.72355  -0.17581
C          C       0.54762   0.88091   0.77482  -0.16628
C          C       0.10588   0.64533   0.75361  -0.18155
C          C       0.65760   0.53930   0.79968  -0.17541
C          C       0.45561   0.09206   0.70656  -0.17399
C          C       0.90279   0.33960   0.70247  -0.16053
C          C       0.38483   0.44555   0.72397  -0.11675
C          C       0.54585   0.90803   0.77081  -0.11889
C          C       0.08166   0.61637   0.72868  -0.12515
C          C       0.62850   0.53587   0.79399  -0.12298
C          C       0.45813   0.06483   0.68729  -0.12642
C          C       0.93066   0.36751   0.70813  -0.12739
C          C       0.38034   0.41956   0.80812   0.06116
C          C       0.56954   0.93753   0.80170   0.05801
C          C       0.04761   0.60940   0.78566   0.05849
C          C       0.62083   0.56062   0.82903   0.05867
C          C       0.42905   0.03551   0.77378   0.06409
C          C       0.95453   0.36791   0.76011   0.05727
C          C       0.34659   0.39467   0.90133  -0.13277
C          C       0.59453   0.93803   0.84308  -0.12995
C          C       0.03855   0.63232   0.87375  -0.11730
C          C       0.64324   0.58868   0.87775  -0.12206
C          C       0.39755   0.03465   0.88801  -0.12986
C          C       0.94909   0.33843   0.80422  -0.13444
C          C       0.31878   0.39541   0.90492  -0.14598
C          C       0.59665   0.91105   0.84546  -0.15060
C          C       0.06238   0.66104   0.90244  -0.15441
C          C       0.67228   0.59227   0.88366  -0.14620
C          C       0.39510   0.06191   0.91272  -0.15388
C          C       0.92161   0.31045   0.79585  -0.14584
C          C       0.41000   0.32918   0.84223  -0.12458
C          C       0.65499   0.05891   0.77421  -0.12451
C          C       0.93498   0.57840   0.75886  -0.11316
C          C       0.59619   0.64603   0.72347  -0.11821
C          C       0.34369   0.91966   0.74337  -0.11435
C          C       0.07044   0.40563   0.85844  -0.13326
C          C       0.43762   0.35629   0.72147   0.06255
C          C       0.62871   0.05575   0.73354   0.05684
C          C       0.93990   0.55215   0.70486   0.06478
C          C       0.56880   0.61648   0.72227   0.05874
C          C       0.37718   0.92411   0.63842   0.06186
C          C       0.07115   0.42891   0.77113   0.05743
C          C       0.46530   0.35390   0.57665  -0.12992
C          C       0.63260   0.08368   0.67689  -0.12684
C          C       0.91646   0.52712   0.64546  -0.12618
C          C       0.54397   0.61675   0.68306  -0.12962
C          C       0.38109   0.90148   0.51612  -0.13916
C          C       0.10352   0.45442   0.66340  -0.12688
C          C       0.46578   0.32567   0.55725  -0.15266
C          C       0.66052   0.11298   0.66600  -0.14981
C          C       0.88933   0.52827   0.64287  -0.15747
C          C       0.54530   0.64471   0.65763  -0.15192
C          C       0.35274   0.87532   0.50130  -0.15396
C          C       0.13367   0.45671   0.64606  -0.14687
C          C       0.43902   0.29899   0.68457   0.19915
C          C       0.68630   0.11603   0.70998   0.19712
C          C       0.88463   0.55463   0.69669   0.20720
C          C       0.57147   0.67392   0.67179   0.20404
C          C       0.31918   0.87030   0.61301   0.20465
C          C       0.13294   0.43383   0.73707   0.20066
C          C       0.41057   0.30101   0.82518  -0.16723
C          C       0.68309   0.08803   0.76204  -0.17011
C          C       0.90832   0.57993   0.75353  -0.17189
C          C       0.59786   0.67413   0.69696  -0.18175
C          C       0.31535   0.89352   0.73066  -0.16266
C          C       0.10048   0.40790   0.84320  -0.16634
C          C       0.79013   0.24084   0.69016   0.19247
C          C       0.76866   0.54099   0.67585   0.19247
C          C       0.45700   0.19278   0.58565   0.19718
C          C       0.21268   0.75110   0.60469   0.19006
C          C       0.26201   0.45605   0.64763   0.19654
C          C       0.54569   0.77337   0.71147   0.18694
C          C       0.81830   0.24535   0.71861  -0.01158
C          C       0.75782   0.56365   0.74680  -0.00727
C          C       0.43347   0.16686   0.72493  -0.00426
C          C       0.17843   0.74153   0.73872  -0.00893
C          C       0.26269   0.43333   0.73351  -0.00283
C          C       0.56759   0.80346   0.74978  -0.01240
C          C       0.81829   0.21852   0.75911  -0.24921
C          C       0.77901   0.59146   0.80323  -0.23877
C          C       0.40673   0.16851   0.88287  -0.24069
C          C       0.17183   0.76247   0.86792  -0.24520
C          C       0.23156   0.40597   0.83148  -0.23896
C          C       0.59511   0.80729   0.77949  -0.23499
C          C       0.79179   0.18831   0.76967   0.18813
C          C       0.81024   0.59691   0.78980   0.19284
C          C       0.40334   0.19523   0.90541   0.18412
C          C       0.19835   0.79218   0.86648   0.19242
C          C       0.20046   0.40147   0.85110   0.18521
C          C       0.60155   0.78256   0.76815   0.19711
C          C       0.76391   0.18379   0.73819  -0.00129
C          C       0.82030   0.57364   0.72490  -0.01853
C          C       0.42706   0.22135   0.76746  -0.02141
C          C       0.23263   0.80176   0.73144  -0.01481
C          C       0.19955   0.42467   0.77147  -0.00826
C          C       0.57972   0.75265   0.72944  -0.00871
C          C       0.76380   0.21051   0.69856  -0.23371
C          C       0.79929   0.54606   0.66664  -0.23852
C          C       0.45321   0.21928   0.60668  -0.23499
C          C       0.23900   0.78103   0.59974  -0.24330
C          C       0.23081   0.45145   0.66650  -0.23356
C          C       0.55211   0.74869   0.70046  -0.25169
C          C       0.84609   0.27679   0.71187   0.08804
C          C       0.72589   0.55804   0.75183   0.08334
C          C       0.43677   0.13880   0.70498   0.09138
C          C       0.15118   0.71090   0.73247   0.08562
C          C       0.29454   0.43788   0.72457   0.08719
C          C       0.56184   0.82973   0.75372   0.08341
C          C       0.73651   0.15212   0.74610   0.09333
C          C       0.85113   0.57687   0.72233   0.09090
C          C       0.42478   0.25002   0.79299   0.08578
C          C       0.26129   0.83143   0.73694   0.08101
C          C       0.16683   0.42031   0.79773   0.08594
C          C       0.58440   0.72583   0.72840   0.08737
C          C       0.16975   0.35035   0.01489  -0.18161
C          C       0.65212   0.81550   0.81807  -0.18099
C          C       0.15943   0.80511   0.12398  -0.19017
C          C       0.82223   0.64686   0.91429  -0.17730
C          C       0.35183   0.17116   0.18957  -0.18464
C          C       0.81960   0.16535   0.82813  -0.18435
C          C       0.29334   0.50513   0.46001  -0.18351
C          C       0.49493   0.73946   0.66530  -0.18617
C          C       0.25205   0.73763   0.35759  -0.18119
C          C       0.76091   0.49467   0.51734  -0.18770
C          C       0.50866   0.21695   0.30290  -0.18143
C          C       0.76124   0.26368   0.64114  -0.18918
N          N       0.28427   0.42683   0.27964  -0.30315
N          N       0.57285   0.88133   0.32186  -0.29686
N          N       0.11953   0.71230   0.40670  -0.29785
N          N       0.69870   0.58802   0.35878  -0.29997
N          N       0.41657   0.14177   0.34196  -0.30059
N          N       0.86950   0.29907   0.25466  -0.30006
N          N       0.56368   0.72573   0.17792  -0.30663
N          N       0.29156   0.85615   0.14378  -0.29016
N          N       0.15540   0.44855   0.18604  -0.30308
N          N       0.44394   0.29860   0.15463  -0.29533
N          N       0.71359   0.16744   0.19387  -0.30690
N          N       0.84565   0.56866   0.21424  -0.30138
N          N       0.29362   0.41766   0.81771  -0.30570
N          N       0.57917   0.85659   0.80650  -0.30716
N          N       0.12004   0.69826   0.86295  -0.28843
N          N       0.71144   0.57472   0.84195  -0.29892
N          N       0.41916   0.11718   0.84296  -0.29389
N          N       0.87108   0.28037   0.74388  -0.30832
N          N       0.56880   0.70035   0.65931  -0.29901
N          N       0.29182   0.84231   0.59979  -0.29539
N          N       0.16503   0.43919   0.71113  -0.29976
N          N       0.44235   0.27195   0.65679  -0.29819
N          N       0.71266   0.14689   0.69820  -0.30523
N          N       0.85580   0.55270   0.69527  -0.30568
O          O       0.15735   0.38162   0.42298  -0.17309
O          O       0.62393   0.81122   0.30573  -0.17482
O          O       0.19493   0.82656   0.52490  -0.17004
O          O       0.81409   0.63365   0.39676  -0.17567
O          O       0.37695   0.22394   0.54695  -0.17017
O          O       0.79307   0.17935   0.28661  -0.16594
O          O       0.28061   0.48958   0.02779  -0.17274
O          O       0.51286   0.79533   0.21065  -0.16831
O          O       0.21826   0.74049   0.03538  -0.16822
O          O       0.73219   0.52481   0.15864  -0.16945
O          O       0.48349   0.21551   0.94037  -0.17175
O          O       0.79325   0.28588   0.13600  -0.17427
O          O       0.16919   0.37498   0.94397  -0.17496
O          O       0.62878   0.78509   0.78774  -0.16844
O          O       0.19374   0.81402   0.98635  -0.16594
O          O       0.83252   0.62366   0.83946  -0.17332
O          O       0.37715   0.19794   0.05387  -0.17349
O          O       0.79111   0.16130   0.80242  -0.17322
O          O       0.29321   0.48235   0.55308  -0.17134
O          O       0.51797   0.77023   0.69432  -0.17385
O          O       0.21763   0.72868   0.49104  -0.17197
O          O       0.74676   0.51404   0.62532  -0.17594
O          O       0.48349   0.19028   0.43933  -0.17028
O          O       0.79070   0.26762   0.65551  -0.16556

