data_crystal

_audit_creation_method 'AiiDA-DDEC plugin'

_cell_length_a        48.94691
_cell_length_b        48.93966
_cell_length_c         8.29563

_cell_angle_alpha     88.70536
_cell_angle_beta     89.78802
_cell_angle_gamma     119.98274

_symmetry_space_group_name_Hall 'P 1'
_symmetry_space_group_name_H-M  'P 1'

loop_
_symmetry_equiv_pos_as_xyz
 'x,y,z'

loop_
_atom_site_label
_atom_site_type_symbol
_atom_site_fract_x
_atom_site_fract_y
_atom_site_fract_z
_atom_site_charge
H          H       0.43685   0.47125   0.33184   0.10215
H          H       0.52630   0.96482   0.31618   0.10363
H          H       0.03406   0.56148   0.32967   0.10387
H          H       0.56179   0.52767   0.32683   0.10311
H          H       0.47087   0.03470   0.31475   0.10236
H          H       0.96498   0.43664   0.31684   0.10239
H          H       0.52014   0.48524   0.26225   0.10021
H          H       0.51435   0.03609   0.28287   0.10037
H          H       0.96409   0.47888   0.26741   0.10025
H          H       0.47865   0.51522   0.30829   0.10088
H          H       0.48313   0.96410   0.26426   0.10081
H          H       0.03602   0.51975   0.28763   0.10096
H          H       0.49564   0.43162   0.22469   0.10558
H          H       0.56848   0.06526   0.24186   0.10546
H          H       0.93518   0.50408   0.23211   0.10567
H          H       0.50352   0.56968   0.25967   0.10617
H          H       0.42913   0.93547   0.23059   0.10560
H          H       0.06494   0.49473   0.23687   0.10530
H          H       0.39536   0.37127   0.27467   0.10447
H          H       0.62706   0.02317   0.27715   0.10418
H          H       0.97562   0.60375   0.29192   0.10310
H          H       0.60419   0.62843   0.27964   0.10441
H          H       0.37023   0.97679   0.28031   0.10455
H          H       0.02287   0.39391   0.27443   0.10432
H          H       0.34361   0.45242   0.50844   0.10982
H          H       0.54600   0.88931   0.49837   0.11185
H          H       0.10887   0.65651   0.49843   0.11034
H          H       0.65556   0.54711   0.51051   0.10842
H          H       0.45398   0.10947   0.49878   0.11268
H          H       0.88907   0.34359   0.50058   0.10904
H          H       0.39607   0.45739   0.48231   0.10690
H          H       0.54031   0.93656   0.47608   0.10741
H          H       0.06182   0.60341   0.48541   0.10617
H          H       0.60290   0.54186   0.48650   0.10708
H          H       0.45832   0.06170   0.47225   0.10653
H          H       0.93712   0.39565   0.47336   0.10661
H          H       0.35668   0.37563   0.18566   0.11053
H          H       0.62150   0.98087   0.15725   0.10987
H          H       0.01791   0.64097   0.17177   0.11172
H          H       0.64198   0.62323   0.16459   0.11019
H          H       0.37495   0.02053   0.18260   0.11147
H          H       0.97938   0.35588   0.17123   0.11256
H          H       0.30411   0.37014   0.21686   0.11389
H          H       0.62759   0.93378   0.18383   0.11460
H          H       0.06477   0.69409   0.18768   0.11338
H          H       0.69478   0.62884   0.19185   0.11412
H          H       0.37014   0.06785   0.21462   0.11330
H          H       0.93184   0.30342   0.20660   0.11380
H          H       0.40864   0.34560   0.07214   0.11096
H          H       0.65471   0.06368   0.08179   0.10999
H          H       0.93758   0.59396   0.09462   0.10911
H          H       0.59093   0.65578   0.08259   0.10849
H          H       0.34232   0.93662   0.08366   0.10897
H          H       0.06363   0.40628   0.08686   0.10928
H          H       0.49123   0.38814   0.36650   0.11361
H          H       0.61157   0.10289   0.38088   0.11195
H          H       0.89532   0.50664   0.37174   0.11238
H          H       0.50966   0.61281   0.40096   0.11226
H          H       0.38685   0.89745   0.38124   0.11394
H          H       0.10245   0.48996   0.36858   0.11216
H          H       0.49692   0.34092   0.33999   0.11482
H          H       0.65954   0.15558   0.35101   0.11446
H          H       0.84303   0.50242   0.34686   0.11540
H          H       0.50468   0.66069   0.37410   0.11295
H          H       0.33975   0.84446   0.36310   0.11234
H          H       0.15528   0.49528   0.34575   0.11460
H          H       0.41452   0.29854   0.04539   0.10966
H          H       0.70257   0.11624   0.05304   0.10893
H          H       0.88536   0.58975   0.07046   0.11022
H          H       0.58614   0.70367   0.05802   0.11087
H          H       0.29516   0.88351   0.06568   0.11391
H          H       0.11642   0.41159   0.06549   0.10983
H          H       0.79545   0.27477   0.13757   0.14562
H          H       0.72541   0.52205   0.14713   0.14609
H          H       0.48027   0.20559   0.13562   0.14612
H          H       0.20515   0.72455   0.16428   0.14711
H          H       0.27503   0.47903   0.14913   0.14627
H          H       0.52056   0.79607   0.14845   0.14569
H          H       0.79608   0.18426   0.41801   0.14533
H          H       0.81436   0.61338   0.40868   0.14600
H          H       0.38842   0.20326   0.40781   0.14599
H          H       0.19935   0.81464   0.39280   0.14664
H          H       0.18446   0.38521   0.41462   0.14726
H          H       0.61281   0.79813   0.40959   0.14558
H          H       0.84896   0.30876   0.31564   0.09547
H          H       0.69022   0.54143   0.32081   0.09618
H          H       0.45883   0.14925   0.29787   0.09806
H          H       0.14695   0.69001   0.29136   0.09913
H          H       0.30935   0.45765   0.30917   0.09868
H          H       0.54159   0.85154   0.29701   0.09757
H          H       0.86222   0.29749   0.14387   0.08778
H          H       0.70260   0.56583   0.14392   0.08782
H          H       0.43263   0.13773   0.13400   0.08719
H          H       0.13713   0.70587   0.12194   0.08604
H          H       0.29626   0.43227   0.14308   0.08640
H          H       0.56775   0.86361   0.12823   0.08656
H          H       0.72931   0.16172   0.41245   0.08679
H          H       0.83928   0.57282   0.40431   0.08990
H          H       0.43566   0.27063   0.41230   0.08625
H          H       0.26791   0.83195   0.43709   0.08796
H          H       0.16435   0.43338   0.42705   0.08711
H          H       0.56595   0.73087   0.42876   0.08684
H          H       0.74224   0.15027   0.24021   0.09649
H          H       0.84881   0.59384   0.21674   0.09294
H          H       0.40971   0.25936   0.24713   0.09746
H          H       0.25811   0.84939   0.27463   0.10349
H          H       0.15014   0.40749   0.26327   0.09810
H          H       0.59160   0.74234   0.25835   0.09742
H          H       0.43739   0.47089   0.82642   0.10263
H          H       0.52861   0.96609   0.81687   0.10288
H          H       0.03566   0.56403   0.81896   0.10214
H          H       0.56244   0.52678   0.82328   0.10228
H          H       0.47244   0.03487   0.81804   0.10278
H          H       0.96659   0.43942   0.82031   0.10274
H          H       0.52049   0.48372   0.76959   0.10071
H          H       0.51646   0.03703   0.78581   0.10133
H          H       0.96605   0.48140   0.75259   0.10117
H          H       0.47939   0.51466   0.78865   0.10082
H          H       0.48606   0.96509   0.76614   0.10052
H          H       0.03771   0.52218   0.78948   0.10092
H          H       0.49539   0.43001   0.72616   0.10570
H          H       0.57096   0.06640   0.74088   0.10510
H          H       0.93684   0.50640   0.72193   0.10625
H          H       0.50458   0.56906   0.74870   0.10547
H          H       0.43228   0.93567   0.73782   0.10510
H          H       0.06664   0.49687   0.73741   0.10558
H          H       0.39494   0.37070   0.77285   0.10399
H          H       0.62937   0.02408   0.77623   0.10343
H          H       0.97696   0.60608   0.77864   0.10540
H          H       0.60493   0.62770   0.78838   0.10374
H          H       0.37194   0.97538   0.78774   0.10439
H          H       0.02383   0.39607   0.77507   0.10362
H          H       0.34397   0.45218   0.00706   0.10958
H          H       0.54570   0.88903   0.98716   0.10989
H          H       0.11031   0.65630  -0.00286   0.11125
H          H       0.65583   0.54443   0.00102   0.11239
H          H       0.45180   0.10784   0.00336   0.11105
H          H       0.89031   0.34496   0.00000   0.11194
H          H       0.39642   0.45719   0.97844   0.10621
H          H       0.54106   0.93685   0.96762   0.10733
H          H       0.06252   0.60399   0.97752   0.10705
H          H       0.60332   0.53945   0.98008   0.10712
H          H       0.45793   0.06109   0.97909   0.10659
H          H       0.93770   0.39753   0.97120   0.10707
H          H       0.35658   0.37548   0.68132   0.11243
H          H       0.62447   0.98183   0.66406   0.11084
H          H       0.02044   0.64497   0.67377   0.11357
H          H       0.64303   0.62324   0.67485   0.11152
H          H       0.37678   0.01882   0.67431   0.11060
H          H       0.98137   0.35877   0.67211   0.11053
H          H       0.30400   0.36983   0.71608   0.11395
H          H       0.62961   0.93425   0.68897   0.11500
H          H       0.06771   0.69733   0.69887   0.11345
H          H       0.69568   0.62865   0.70001   0.11400
H          H       0.37025   0.06532   0.70303   0.11427
H          H       0.93418   0.30597   0.70556   0.11445
H          H       0.40807   0.34509   0.56640   0.10849
H          H       0.65810   0.06467   0.58767   0.10905
H          H       0.93784   0.59362   0.56412   0.10766
H          H       0.59312   0.65654   0.59475   0.10926
H          H       0.34530   0.93606   0.59101   0.10872
H          H       0.06393   0.40812   0.58604   0.11195
H          H       0.48977   0.38578   0.86713   0.11368
H          H       0.61304   0.10418   0.87022   0.11389
H          H       0.89829   0.51103   0.87739   0.11028
H          H       0.50875   0.61107   0.89019   0.11252
H          H       0.38991   0.89654   0.88512   0.11319
H          H       0.10404   0.49131   0.87161   0.11348
H          H       0.49431   0.33800   0.84221   0.11081
H          H       0.66079   0.15692   0.84111   0.11540
H          H       0.84536   0.50537   0.84952   0.11480
H          H       0.50325   0.65853   0.86281   0.11558
H          H       0.34292   0.84339   0.86266   0.11595
H          H       0.15644   0.49560   0.84784   0.11398
H          H       0.41238   0.29703   0.54317   0.11162
H          H       0.70591   0.11717   0.56199   0.10979
H          H       0.88491   0.58783   0.53586   0.11091
H          H       0.58767   0.70401   0.56832   0.11030
H          H       0.29838   0.88290   0.56881   0.11106
H          H       0.11617   0.41203   0.56574   0.11247
H          H       0.79653   0.27684   0.64828   0.14576
H          H       0.72574   0.52013   0.64550   0.14589
H          H       0.47840   0.20377   0.64924   0.14662
H          H       0.20663   0.72475   0.65245   0.14656
H          H       0.27518   0.47881   0.64888   0.14639
H          H       0.51986   0.79509   0.64697   0.14660
H          H       0.79871   0.18561   0.91029   0.14619
H          H       0.81548   0.61304   0.89281   0.14542
H          H       0.38523   0.20027   0.91184   0.14607
H          H       0.20294   0.81504   0.89377   0.14568
H          H       0.18515   0.38647   0.92659   0.14548
H          H       0.61311   0.79780   0.89973   0.14603
H          H       0.85063   0.31040   0.82011   0.09582
H          H       0.69090   0.54050   0.80892   0.09678
H          H       0.45721   0.14796   0.81909   0.09484
H          H       0.14830   0.69051   0.77999   0.10112
H          H       0.30981   0.45748   0.81059   0.09671
H          H       0.54137   0.85080   0.79689   0.09667
H          H       0.86349   0.29957   0.64532   0.08656
H          H       0.70370   0.56581   0.63551   0.08651
H          H       0.43388   0.13723   0.64388   0.08763
H          H       0.13770   0.70767   0.61915   0.08720
H          H       0.29591   0.43190   0.64539   0.08711
H          H       0.56655   0.86260   0.62419   0.08595
H          H       0.73124   0.16394   0.91587   0.08749
H          H       0.83590   0.56475   0.91123   0.08693
H          H       0.43173   0.26815   0.91426   0.08739
H          H       0.27025   0.83172   0.93534   0.08617
H          H       0.16418   0.43302   0.92668   0.08690
H          H       0.56525   0.73028   0.92711   0.08702
H          H       0.74419   0.15171   0.74693   0.09588
H          H       0.85037   0.59187   0.74531   0.09859
H          H       0.40654   0.25644   0.74613   0.10075
H          H       0.26124   0.84916   0.76996   0.09835
H          H       0.15044   0.40744   0.76164   0.09731
H          H       0.59130   0.74157   0.75834   0.09914
C          C       0.41239   0.42099   0.30416   0.07402
C          C       0.57694   0.99066   0.29625   0.07487
C          C       0.00824   0.58629   0.30917   0.07615
C          C       0.58665   0.57833   0.30300   0.07510
C          C       0.42034   0.00918   0.29876   0.07389
C          C       0.99046   0.41159   0.29560   0.07355
C          C       0.43943   0.45088   0.30835  -0.18155
C          C       0.54711   0.98804   0.29952  -0.18241
C          C       0.01104   0.55919   0.31018  -0.18180
C          C       0.55945   0.54850   0.30966  -0.18255
C          C       0.45014   0.01171   0.29784  -0.18139
C          C       0.98805   0.43892   0.29880  -0.18195
C          C       0.46971   0.45518   0.28029   0.11895
C          C       0.54360   0.01477   0.28047   0.11963
C          C       0.98484   0.52923   0.28336   0.11876
C          C       0.52923   0.54494   0.29404   0.11955
C          C       0.45382   0.98534   0.27433   0.11805
C          C       0.01472   0.46916   0.27910   0.11969
C          C       0.49842   0.48594   0.28024  -0.13228
C          C       0.51303   0.01320   0.27968  -0.13260
C          C       0.98675   0.50044   0.27824  -0.13353
C          C       0.50036   0.51427   0.29604  -0.13220
C          C       0.48438   0.98690   0.27288  -0.13235
C          C       0.01319   0.49818   0.28259  -0.13218
C          C       0.47237   0.42852   0.24903  -0.18642
C          C       0.57092   0.04448   0.25921  -0.18689
C          C       0.95543   0.52700   0.25703  -0.18739
C          C       0.52679   0.57220   0.27303  -0.18845
C          C       0.42663   0.95601   0.25110  -0.18596
C          C       0.04422   0.47145   0.25458  -0.18631
C          C       0.44582   0.39821   0.24557   0.07653
C          C       0.60109   0.04784   0.25468   0.07648
C          C       0.95174   0.55364   0.25803   0.07653
C          C       0.55362   0.60234   0.26387   0.07852
C          C       0.39643   0.95262   0.25070   0.07774
C          C       0.04747   0.44458   0.24925   0.07718
C          C       0.41597   0.39480   0.27233  -0.18642
C          C       0.60374   0.02074   0.27364  -0.18476
C          C       0.97834   0.58307   0.28481  -0.18722
C          C       0.58336   0.60507   0.27910  -0.18687
C          C       0.39362   0.97940   0.27442  -0.18602
C          C       0.02040   0.41480   0.27054  -0.18537
C          C       0.32037   0.41064   0.36552   0.15814
C          C       0.58775   0.90897   0.34558   0.15770
C          C       0.08953   0.67876   0.34557   0.15854
C          C       0.67862   0.58860   0.35345   0.15735
C          C       0.41162   0.09161   0.35871   0.15717
C          C       0.90765   0.31996   0.35754   0.15613
C          C       0.34644   0.43555   0.43750  -0.17612
C          C       0.56269   0.90946   0.42410  -0.17784
C          C       0.08890   0.65307   0.42652  -0.17712
C          C       0.65260   0.56372   0.43368  -0.17460
C          C       0.43667   0.08995   0.42911  -0.17758
C          C       0.90893   0.34615   0.42906  -0.17689
C          C       0.37623   0.43854   0.42096  -0.12623
C          C       0.55925   0.93606   0.40970  -0.12757
C          C       0.06238   0.62299   0.41774  -0.12529
C          C       0.62275   0.56054   0.41866  -0.12727
C          C       0.43924   0.06298   0.41249  -0.12703
C          C       0.93602   0.37578   0.41144  -0.12459
C          C       0.38069   0.41706   0.33091   0.05556
C          C       0.58057   0.96252   0.31565   0.05753
C          C       0.03610   0.61800   0.32770   0.05691
C          C       0.61829   0.58194   0.32270   0.05758
C          C       0.41707   0.03726   0.32447   0.05640
C          C       0.96214   0.38002   0.31996   0.05654
C          C       0.35398   0.39201   0.26132  -0.11045
C          C       0.60550   0.96137   0.23700  -0.11178
C          C       0.03729   0.64430   0.24808  -0.11431
C          C       0.64486   0.60690   0.24405  -0.11178
C          C       0.39185   0.03940   0.25677  -0.10970
C          C       0.96023   0.35328   0.24891  -0.11164
C          C       0.32420   0.38870   0.27820  -0.14901
C          C       0.60915   0.93501   0.25130  -0.14790
C          C       0.06357   0.67431   0.25627  -0.14744
C          C       0.67469   0.61029   0.25885  -0.14882
C          C       0.38900   0.06608   0.27379  -0.15009
C          C       0.93350   0.32360   0.26781  -0.14789
C          C       0.42782   0.34461   0.13270  -0.12746
C          C       0.65572   0.08358   0.14291  -0.12794
C          C       0.91705   0.57404   0.15199  -0.12569
C          C       0.57226   0.65685   0.14861  -0.12508
C          C       0.34187   0.91658   0.14597  -0.12645
C          C       0.08348   0.42573   0.14506  -0.12539
C          C       0.44958   0.37045   0.22090   0.05865
C          C       0.62949   0.07932   0.23320   0.05846
C          C       0.92044   0.55066   0.23551   0.05892
C          C       0.55055   0.63071   0.24315   0.05705
C          C       0.36832   0.92104   0.23262   0.05885
C          C       0.07902   0.44788   0.22855   0.05871
C          C       0.47491   0.36899   0.29170  -0.11611
C          C       0.63108   0.10584   0.30502  -0.11585
C          C       0.89315   0.52452   0.30181  -0.11321
C          C       0.52586   0.63227   0.32147  -0.11419
C          C       0.36728   0.89442   0.30730  -0.11478
C          C       0.10554   0.47331   0.29712  -0.11485
C          C       0.47833   0.34259   0.27719  -0.14979
C          C       0.65789   0.13552   0.28867  -0.14782
C          C       0.86363   0.52194   0.28820  -0.14772
C          C       0.52292   0.65903   0.30715  -0.14791
C          C       0.34090   0.86449   0.29729  -0.14988
C          C       0.13535   0.47649   0.28477  -0.14817
C          C       0.45645   0.31707   0.18935   0.15825
C          C       0.68379   0.13931   0.19875   0.15771
C          C       0.86071   0.54565   0.20711   0.15798
C          C       0.54472   0.68484   0.21294   0.15639
C          C       0.31484   0.86046   0.21030   0.15712
C          C       0.13934   0.45419   0.20189   0.15779
C          C       0.43125   0.31812   0.11672  -0.17376
C          C       0.68267   0.11333   0.12548  -0.17317
C          C       0.88746   0.57156   0.13753  -0.17723
C          C       0.56940   0.68378   0.13356  -0.17638
C          C       0.31534   0.88655   0.13445  -0.17857
C          C       0.11338   0.42884   0.13176  -0.17618
C          C       0.79602   0.25527   0.19977  -0.22168
C          C       0.74461   0.54221   0.20466  -0.22283
C          C       0.45999   0.20461   0.19569  -0.22291
C          C       0.20337   0.74398   0.21398  -0.22407
C          C       0.25554   0.45834   0.20803  -0.22411
C          C       0.54098   0.79697   0.20516  -0.22263
C          C       0.82338   0.25923   0.27249  -0.00910
C          C       0.74009   0.56541   0.27378  -0.00958
C          C       0.43591   0.17655   0.26522  -0.01185
C          C       0.17445   0.74029   0.26440  -0.00899
C          C       0.25939   0.43407   0.27483  -0.00709
C          C       0.56500   0.82487   0.26729  -0.01100
C          C       0.82276   0.23340   0.34985   0.19820
C          C       0.76548   0.59066   0.34610   0.19931
C          C       0.41051   0.17677   0.33986   0.19689
C          C       0.17362   0.76603   0.32689   0.19600
C          C       0.23348   0.40814   0.34794   0.19691
C          C       0.59056   0.82473   0.33943   0.19825
C          C       0.79547   0.20378   0.35608  -0.22309
C          C       0.79518   0.59322   0.35084  -0.22335
C          C       0.40870   0.20426   0.34779  -0.22354
C          C       0.20102   0.79524   0.34179  -0.22308
C          C       0.20398   0.40601   0.35659  -0.22385
C          C       0.59250   0.79726   0.35163  -0.22325
C          C       0.76810   0.19983   0.28346  -0.00974
C          C       0.79975   0.57012   0.28057  -0.00853
C          C       0.43283   0.23232   0.27902  -0.00968
C          C       0.22997   0.79891   0.29180  -0.01079
C          C       0.20022   0.43046   0.29134  -0.01103
C          C       0.56850   0.76936   0.28886  -0.00904
C          C       0.76868   0.22572   0.20692   0.19866
C          C       0.77434   0.54486   0.20858   0.19664
C          C       0.45819   0.23214   0.20377   0.19796
C          C       0.23070   0.77325   0.22760   0.19629
C          C       0.22610   0.45630   0.21764   0.19825
C          C       0.54303   0.76957   0.21616   0.19677
C          C       0.85329   0.29040   0.26877  -0.07303
C          C       0.70891   0.56410   0.26960  -0.07446
C          C       0.43603   0.14609   0.25858  -0.07269
C          C       0.14415   0.70989   0.24916  -0.07677
C          C       0.29032   0.43486   0.26798  -0.07549
C          C       0.56448   0.85510   0.25480  -0.07303
C          C       0.73813   0.16875   0.28747  -0.07473
C          C       0.83120   0.57198   0.27988  -0.07283
C          C       0.43252   0.26263   0.28708  -0.07529
C          C       0.26052   0.82896   0.31024  -0.07643
C          C       0.16959   0.43024   0.30172  -0.07452
C          C       0.56888   0.73905   0.30172  -0.07381
C          C       0.51759   0.71421   0.15036   0.31860
C          C       0.28680   0.80357   0.16316   0.31714
C          C       0.19616   0.48187   0.14236   0.31862
C          C       0.48406   0.28803   0.13052   0.31828
C          C       0.71359   0.19596   0.13268   0.31986
C          C       0.80469   0.51968   0.13941   0.31618
C          C       0.61594   0.88027   0.40352   0.31891
C          C       0.11748   0.73563   0.39014   0.31859
C          C       0.26363   0.38299   0.42579   0.31888
C          C       0.38472   0.12116   0.41776   0.31904
C          C       0.87768   0.26343   0.42718   0.31876
C          C       0.73509   0.61593   0.41308   0.31857
C          C       0.41245   0.42056   0.80037   0.07380
C          C       0.57922   0.99163   0.79567   0.07451
C          C       0.00978   0.58876   0.79979   0.07283
C          C       0.58735   0.57751   0.80566   0.07352
C          C       0.42190   0.00850   0.80287   0.07483
C          C       0.99170   0.41402   0.79657   0.07461
C          C       0.43971   0.45034   0.80378  -0.18097
C          C       0.54950   0.98923   0.79981  -0.18116
C          C       0.01263   0.56168   0.79957  -0.18238
C          C       0.56014   0.54765   0.80733  -0.18152
C          C       0.45196   0.01166   0.80220  -0.18230
C          C       0.98952   0.44147   0.80039  -0.18175
C          C       0.46990   0.45425   0.77766   0.11871
C          C       0.54605   0.01598   0.78087   0.11869
C          C       0.98654   0.53168   0.77221   0.11785
C          C       0.53000   0.54412   0.78752   0.11940
C          C       0.45616   0.98558   0.77944   0.11899
C          C       0.01634   0.47160   0.77933   0.11942
C          C       0.49886   0.48488   0.77848  -0.13343
C          C       0.51543   0.01427   0.78186  -0.13293
C          C       0.98855   0.50294   0.76850  -0.13219
C          C       0.50106   0.51348   0.78586  -0.13135
C          C       0.48695   0.98771   0.77602  -0.13228
C          C       0.01491   0.50068   0.78027  -0.13364
C          C       0.47221   0.42729   0.74822  -0.18578
C          C       0.57338   0.04560   0.75837  -0.18574
C          C       0.95713   0.52938   0.74552  -0.18485
C          C       0.52771   0.57148   0.76662  -0.18619
C          C       0.42930   0.95594   0.75796  -0.18665
C          C       0.04578   0.47371   0.75552  -0.18778
C          C       0.44540   0.39716   0.74335   0.07697
C          C       0.60351   0.04886   0.75315   0.07579
C          C       0.95345   0.55602   0.74538   0.07723
C          C       0.55448   0.60172   0.76387   0.07713
C          C       0.39888   0.95196   0.75858   0.07735
C          C       0.04876   0.44669   0.75063   0.07605
C          C       0.41571   0.39414   0.76960  -0.18505
C          C       0.60608   0.02170   0.77280  -0.18695
C          C       0.97992   0.58553   0.77263  -0.18587
C          C       0.58413   0.60436   0.78365  -0.18500
C          C       0.39551   0.97842   0.78090  -0.18532
C          C       0.02155   0.41706   0.77141  -0.18473
C          C       0.32047   0.41032   0.86509   0.15788
C          C       0.58824   0.90874   0.84026   0.15765
C          C       0.09187   0.68030   0.85052   0.15759
C          C       0.67932   0.58724   0.85345   0.15793
C          C       0.41021   0.08930   0.85647   0.15835
C          C       0.90945   0.32192   0.85642   0.15805
C          C       0.34670   0.43526   0.93598  -0.17629
C          C       0.56299   0.90935   0.91590  -0.17625
C          C       0.09055   0.65387   0.92657  -0.17722
C          C       0.65311   0.56180   0.92951  -0.17923
C          C       0.43528   0.08830   0.93112  -0.17777
C          C       0.91029   0.34791   0.92806  -0.17809
C          C       0.37648   0.43829   0.91791  -0.12448
C          C       0.56021   0.93637   0.90335  -0.12579
C          C       0.06361   0.62419   0.91386  -0.12523
C          C       0.62329   0.55881   0.91617  -0.12655
C          C       0.43892   0.06194   0.91595  -0.12683
C          C       0.93706   0.37778   0.91029  -0.12699
C          C       0.38081   0.41679   0.82729   0.05472
C          C       0.58238   0.96319   0.81418   0.05701
C          C       0.03766   0.62026   0.82388   0.05765
C          C       0.61896   0.58096   0.82600   0.05821
C          C       0.41779   0.03616   0.82512   0.05674
C          C       0.96344   0.38240   0.81988   0.05658
C          C       0.35398   0.39178   0.75815  -0.11241
C          C       0.60763   0.96200   0.73957  -0.11127
C          C       0.03948   0.64732   0.75005  -0.11212
C          C       0.64573   0.60643   0.75131  -0.11080
C          C       0.39269   0.03768   0.75168  -0.11133
C          C       0.96199   0.35585   0.74899  -0.11198
C          C       0.32417   0.38840   0.77688  -0.14826
C          C       0.61069   0.93527   0.75246  -0.14680
C          C       0.06610   0.67695   0.76315  -0.14962
C          C       0.67552   0.60966   0.76469  -0.14781
C          C       0.38882   0.06381   0.76692  -0.14983
C          C       0.93548   0.32599   0.76678  -0.14673
C          C       0.42671   0.34347   0.62915  -0.12526
C          C       0.65860   0.08463   0.64548  -0.12491
C          C       0.91774   0.57440   0.62813  -0.12692
C          C       0.57360   0.65692   0.65565  -0.12604
C          C       0.34475   0.91595   0.65277  -0.12577
C          C       0.08398   0.42710   0.64563  -0.12841
C          C       0.44855   0.36902   0.71883   0.05611
C          C       0.63185   0.08038   0.73078   0.05830
C          C       0.92197   0.55263   0.72222   0.06006
C          C       0.55124   0.63008   0.74385   0.05835
C          C       0.37109   0.92028   0.73993   0.05862
C          C       0.08005   0.44947   0.73013   0.05901
C          C       0.47334   0.36687   0.79155  -0.11310
C          C       0.63291   0.10704   0.79777  -0.11412
C          C       0.89533   0.52741   0.79878  -0.11359
C          C       0.52562   0.63100   0.81541  -0.11410
C          C       0.37024   0.89358   0.81216  -0.11666
C          C       0.10676   0.47449   0.79968  -0.11631
C          C       0.47602   0.34004   0.77828  -0.14990
C          C       0.65961   0.13679   0.78184  -0.14910
C          C       0.86552   0.52403   0.78355  -0.15124
C          C       0.52234   0.65760   0.80067  -0.14786
C          C       0.34399   0.86363   0.79980  -0.15014
C          C       0.13630   0.47708   0.78678  -0.14846
C          C       0.45386   0.31466   0.69074   0.15558
C          C       0.68606   0.14054   0.69753   0.15794
C          C       0.86167   0.54581   0.68932   0.15920
C          C       0.54477   0.68405   0.71224   0.15876
C          C       0.31795   0.85977   0.71327   0.16057
C          C       0.13977   0.45456   0.70301   0.15628
C          C       0.42930   0.31643   0.61491  -0.17611
C          C       0.68553   0.11442   0.62925  -0.17657
C          C       0.88779   0.57099   0.61132  -0.17590
C          C       0.57041   0.68366   0.63962  -0.17603
C          C       0.31839   0.88594   0.63914  -0.17475
C          C       0.11358   0.42952   0.63246  -0.17703
C          C       0.79749   0.25713   0.70546  -0.22259
C          C       0.74497   0.54044   0.70200  -0.22147
C          C       0.45785   0.20255   0.70732  -0.22428
C          C       0.20531   0.74422   0.70514  -0.22312
C          C       0.25577   0.45835   0.70971  -0.22427
C          C       0.54042   0.79611   0.70270  -0.22343
C          C       0.82515   0.26100   0.77400  -0.00993
C          C       0.74079   0.56429   0.76550  -0.00984
C          C       0.43380   0.17436   0.77542  -0.00955
C          C       0.17668   0.74088   0.75877  -0.01158
C          C       0.25972   0.43435   0.77955  -0.00716
C          C       0.56471   0.82421   0.76211  -0.00864
C          C       0.82503   0.23495   0.84523   0.20001
C          C       0.76650   0.59002   0.83292   0.19797
C          C       0.40809   0.17418   0.84865   0.19694
C          C       0.17650   0.76675   0.82401   0.19635
C          C       0.23396   0.40885   0.85616   0.19590
C          C       0.59062   0.82423   0.83064   0.19751
C          C       0.79782   0.20528   0.85199  -0.22270
C          C       0.79610   0.59236   0.83953  -0.22441
C          C       0.40583   0.20150   0.85417  -0.22197
C          C       0.20419   0.79556   0.84066  -0.22521
C          C       0.20447   0.40676   0.86420  -0.22242
C          C       0.59261   0.79679   0.84339  -0.22235
C          C       0.77012   0.20145   0.78410  -0.00684
C          C       0.80013   0.56825   0.77835  -0.00843
C          C       0.42989   0.22973   0.78561  -0.01020
C          C       0.23280   0.79884   0.78805  -0.00847
C          C       0.20050   0.43069   0.79376  -0.00905
C          C       0.56825   0.76867   0.78467  -0.01204
C          C       0.77037   0.22741   0.71065   0.19839
C          C       0.77447   0.54260   0.70992   0.19817
C          C       0.45571   0.22988   0.71392   0.19605
C          C       0.23299   0.77323   0.71950   0.19642
C          C       0.22629   0.45625   0.71776   0.19693
C          C       0.54247   0.76869   0.71475   0.19911
C          C       0.85495   0.29222   0.77054  -0.07401
C          C       0.70977   0.56334   0.76072  -0.07331
C          C       0.43489   0.14442   0.76972  -0.07373
C          C       0.14585   0.71093   0.74464  -0.07359
C          C       0.29045   0.43477   0.77077  -0.07430
C          C       0.56407   0.85442   0.75096  -0.07379
C          C       0.74009   0.17043   0.79055  -0.07346
C          C       0.83089   0.56874   0.78621  -0.07496
C          C       0.42924   0.25997   0.78963  -0.07457
C          C       0.26340   0.82869   0.80772  -0.07709
C          C       0.16973   0.43019   0.80149  -0.07338
C          C       0.56849   0.73831   0.79977  -0.07612
C          C       0.51684   0.71300   0.65311   0.31910
C          C       0.28927   0.80321   0.65702   0.31879
C          C       0.19634   0.48162   0.63963   0.31825
C          C       0.48139   0.28553   0.63743   0.31657
C          C       0.71556   0.19724   0.63220   0.31999
C          C       0.80479   0.51749   0.63945   0.32103
C          C       0.61566   0.87947   0.89947   0.31820
C          C       0.12081   0.73712   0.89555   0.31743
C          C       0.26385   0.38319   0.93102   0.31863
C          C       0.38229   0.11804   0.91783   0.31725
C          C       0.88021   0.26500   0.91831   0.32072
C          C       0.73601   0.61476   0.90742   0.31809
S          S       0.48609   0.68471   0.07285  -0.31352
S          S       0.31676   0.80165   0.08663  -0.30533
S          S       0.19860   0.51371   0.05758  -0.31044
S          S       0.51642   0.31800   0.05307  -0.30792
S          S       0.68426   0.19854   0.05257  -0.31368
S          S       0.80239   0.48799   0.06196  -0.31079
S          S       0.64780   0.91010   0.47641  -0.30949
S          S       0.08725   0.73733   0.46517  -0.30994
S          S       0.26150   0.35132   0.51102  -0.30970
S          S       0.35266   0.09168   0.50049  -0.30672
S          S       0.90682   0.26102   0.51080  -0.31243
S          S       0.73733   0.64825   0.48108  -0.30962
S          S       0.48476   0.68327   0.58111  -0.30700
S          S       0.31916   0.80133   0.57867  -0.31126
S          S       0.19857   0.51319   0.55256  -0.31156
S          S       0.51368   0.31546   0.55932  -0.30672
S          S       0.68661   0.19956   0.54565  -0.31138
S          S       0.80251   0.48525   0.56995  -0.30852
S          S       0.64668   0.90858   0.98281  -0.31314
S          S       0.09167   0.73941   0.98020  -0.30597
S          S       0.26141   0.35108   0.01209  -0.30876
S          S       0.34975   0.08763   0.99080  -0.30816
S          S       0.90977   0.26244   0.99557  -0.31095
S          S       0.73814   0.64624   0.98652  -0.30986
N          N       0.29033   0.40957   0.36938  -0.13468
N          N       0.58935   0.88027   0.35098  -0.13561
N          N       0.11811   0.70914   0.34445  -0.13496
N          N       0.70870   0.58980   0.35916  -0.13198
N          N       0.41103   0.12082   0.36216  -0.13479
N          N       0.87853   0.29006   0.36477  -0.13138
N          N       0.54365   0.71378   0.20767  -0.13346
N          N       0.28623   0.83007   0.20998  -0.13529
N          N       0.16946   0.45541   0.19959  -0.13324
N          N       0.45762   0.28816   0.18546  -0.13405
N          N       0.71286   0.16923   0.19231  -0.13305
N          N       0.83080   0.54481   0.20267  -0.12774
N          N       0.29050   0.40942   0.87146  -0.13362
N          N       0.58949   0.87987   0.84361  -0.13256
N          N       0.12090   0.71033   0.84944  -0.13695
N          N       0.70947   0.58849   0.85540  -0.13243
N          N       0.40869   0.11802   0.86153  -0.13177
N          N       0.88054   0.29182   0.86329  -0.13400
N          N       0.54337   0.71286   0.70560  -0.13396
N          N       0.28930   0.82952   0.71109  -0.13438
N          N       0.16973   0.45546   0.69996  -0.13227
N          N       0.45467   0.28553   0.68923  -0.13371
N          N       0.71496   0.17060   0.69278  -0.13314
N          N       0.83145   0.54440   0.68547  -0.13773
O          O       0.51818   0.74275   0.15282  -0.18949
O          O       0.25862   0.77521   0.17672  -0.18869
O          O       0.22423   0.48157   0.15196  -0.18974
O          O       0.48321   0.25930   0.13595  -0.19040
O          O       0.74223   0.22376   0.13581  -0.19201
O          O       0.77714   0.52111   0.13659  -0.19165
O          O       0.61563   0.85184   0.39961  -0.19107
O          O       0.14557   0.76406   0.37598  -0.18978
O          O       0.23544   0.38298   0.41482  -0.18964
O          O       0.38541   0.14973   0.40794  -0.18951
O          O       0.84907   0.23556   0.42364  -0.19209
O          O       0.76278   0.61472   0.41541  -0.19396
O          O       0.51728   0.74149   0.65635  -0.19022
O          O       0.26067   0.77509   0.66450  -0.19121
O          O       0.22437   0.48121   0.64811  -0.18997
O          O       0.48093   0.25707   0.64768  -0.18811
O          O       0.74378   0.22534   0.64068  -0.19091
O          O       0.77662   0.51764   0.64847  -0.19060
O          O       0.61588   0.85143   0.88839  -0.18978
O          O       0.14872   0.76541   0.87250  -0.18878
O          O       0.23602   0.38406   0.92738  -0.19088
O          O       0.38341   0.14694   0.91866  -0.19210
O          O       0.85182   0.23698   0.91230  -0.19214
O          O       0.76420   0.61474   0.89611  -0.19073

