data_crystal

_audit_creation_method 'AiiDA-DDEC plugin'

_cell_length_a        49.66117
_cell_length_b        49.59326
_cell_length_c         9.87929

_cell_angle_alpha     90.05708
_cell_angle_beta     89.77351
_cell_angle_gamma     120.11154

_symmetry_space_group_name_Hall 'P 1'
_symmetry_space_group_name_H-M  'P 1'

loop_
_symmetry_equiv_pos_as_xyz
 'x,y,z'

loop_
_atom_site_label
_atom_site_type_symbol
_atom_site_fract_x
_atom_site_fract_y
_atom_site_fract_z
_atom_site_charge
H          H       0.97863   0.92266   0.02138   0.10065
H          H       0.07477   0.06409   0.04287   0.09972
H          H       0.93924   0.01505   0.02675   0.09839
H          H       0.01208   0.07475   0.03393   0.09836
H          H       0.92425   0.93300   0.05406   0.10105
H          H       0.06315   0.98793   0.04410   0.09907
H          H       0.94778   0.86586   0.04293   0.11376
H          H       0.13150   0.09194   0.05560   0.11548
H          H       0.91279   0.04522   0.03285   0.11582
H          H       0.04166   0.13163   0.03867   0.11611
H          H       0.86756   0.90447   0.06573   0.11471
H          H       0.09114   0.95939   0.06150   0.11553
H          H       0.91222   0.87568   0.42684   0.12078
H          H       0.12607   0.03429   0.39200   0.12053
H          H       0.96441   0.09274   0.38958   0.11974
H          H       0.09131   0.12819   0.38855   0.11911
H          H       0.87068   0.96768   0.37212   0.11937
H          H       0.03252   0.90689   0.39619   0.11818
H          H       0.94407   0.93314   0.40386   0.09766
H          H       0.06847   0.00612   0.37634   0.09833
H          H       0.99132   0.06195   0.38049   0.09854
H          H       0.06112   0.07037   0.38081   0.09903
H          H       0.92811   0.99642   0.35940   0.09980
H          H       0.00400   0.93569   0.37552   0.09945
H          H       0.32467   0.20789   0.26484   0.11130
H          H       0.79242   0.11783   0.26019   0.10998
H          H       0.88260   0.67499   0.27105   0.11045
H          H       0.67321   0.79241   0.26137   0.11039
H          H       0.20653   0.88238   0.26865   0.11114
H          H       0.11770   0.32568   0.24946   0.10995
H          H       0.31805   0.11806   0.26792   0.10835
H          H       0.88176   0.20186   0.26211   0.10833
H          H       0.79882   0.68013   0.26715   0.10578
H          H       0.68002   0.88228   0.27002   0.10860
H          H       0.11706   0.79858   0.28002   0.11029
H          H       0.20137   0.32017   0.26091   0.10722
H          H       0.40551   0.20064   0.35181   0.10857
H          H       0.79894   0.20568   0.35061   0.10792
H          H       0.79471   0.59293   0.35080   0.10626
H          H       0.59259   0.79960   0.35639   0.10641
H          H       0.20026   0.79370   0.33616   0.10892
H          H       0.20509   0.40701   0.34557   0.10814
H          H       0.36750   0.25365   0.15420   0.11339
H          H       0.74623   0.11276   0.15834   0.11335
H          H       0.88538   0.63246   0.15151   0.11409
H          H       0.63191   0.74751   0.15351   0.11296
H          H       0.25336   0.88935   0.16400   0.11337
H          H       0.11374   0.36745   0.14239   0.11298
H          H       0.40384   0.31092   0.17248   0.11382
H          H       0.68900   0.09060   0.18100   0.11431
H          H       0.90679   0.59655   0.16594   0.11239
H          H       0.59675   0.69004   0.17082   0.11474
H          H       0.31055   0.91138   0.18524   0.11545
H          H       0.09130   0.40228   0.16174   0.11496
H          H       0.44938   0.29671   0.02072   0.11634
H          H       0.70392   0.15096   0.02511   0.11602
H          H       0.84976   0.55135   0.01564   0.11571
H          H       0.55170   0.70233   0.00947   0.11586
H          H       0.29786   0.85226   0.02908   0.11813
H          H       0.15093   0.44920   0.01072   0.11549
H          H       0.41433   0.23967   0.00955   0.11387
H          H       0.76089   0.17287   0.00690   0.11391
H          H       0.82772   0.58637   0.00363   0.11443
H          H       0.58655   0.75949   0.99615   0.11484
H          H       0.24086   0.83040   0.01602   0.10987
H          H       0.17328   0.41454   0.00033   0.11452
H          H       0.28768   0.17585   0.07233   0.11044
H          H       0.82253   0.11098   0.07477   0.11184
H          H       0.89263   0.71408   0.10257   0.11318
H          H       0.70987   0.82273   0.07471   0.11180
H          H       0.17297   0.88536   0.07344   0.11286
H          H       0.10987   0.28859   0.07261   0.11213
H          H       0.23090   0.14886   0.02785   0.11183
H          H       0.84880   0.08046   0.03233   0.11093
H          H       0.92452   0.77145   0.07788   0.11008
H          H       0.76653   0.84869   0.02831   0.10862
H          H       0.14577   0.91486   0.02843   0.11095
H          H       0.07939   0.23174   0.02994   0.10939
H          H       0.21471   0.08478   0.35280   0.11229
H          H       0.91628   0.13264   0.33909   0.11302
H          H       0.86574   0.78309   0.36432   0.11418
H          H       0.78373   0.91493   0.34486   0.11295
H          H       0.08572   0.87098   0.37085   0.11195
H          H       0.13334   0.21639   0.32681   0.11237
H          H       0.27184   0.11147   0.39583   0.11021
H          H       0.88984   0.16325   0.38282   0.11075
H          H       0.83431   0.72551   0.39308   0.11163
H          H       0.72669   0.88935   0.38960   0.11033
H          H       0.11245   0.84061   0.41407   0.11281
H          H       0.16414   0.27352   0.36977   0.11181
H          H       0.33949   0.09694   0.39948   0.10873
H          H       0.90160   0.24401   0.40522   0.10914
H          H       0.75503   0.65980   0.35511   0.10697
H          H       0.65881   0.90370   0.40037   0.10879
H          H       0.10175   0.75653   0.44459   0.11141
H          H       0.24148   0.34136   0.41405   0.10915
H          H       0.36649   0.06644   0.41063   0.10527
H          H       0.93116   0.30163   0.42418   0.10646
H          H       0.69770   0.63257   0.35940   0.10532
H          H       0.63164   0.93393   0.41754   0.10636
H          H       0.07204   0.69875   0.46295   0.10606
H          H       0.29887   0.36785   0.43584   0.10641
H          H       0.45075   0.14534   0.26325   0.11919
H          H       0.85339   0.30643   0.26325   0.12022
H          H       0.69360   0.54488   0.29490   0.11965
H          H       0.54656   0.85434   0.28476   0.11894
H          H       0.14178   0.69299   0.22642   0.11943
H          H       0.30731   0.45178   0.26970   0.11958
H          H       0.42330   0.17550   0.24372   0.11010
H          H       0.82429   0.24880   0.23642   0.11076
H          H       0.75103   0.57215   0.27958   0.10949
H          H       0.57411   0.82448   0.25798   0.11004
H          H       0.17077   0.75086   0.20083   0.11080
H          H       0.24989   0.42487   0.23996   0.11080
H          H       0.45705   0.34923   0.46252   0.07357
H          H       0.65047   0.10647   0.46784   0.07415
H          H       0.89336   0.54341   0.45357   0.07343
H          H       0.54256   0.65023   0.45740   0.07318
H          H       0.34846   0.89110   0.45845   0.07416
H          H       0.10541   0.45553   0.45300   0.07284
H          H       0.17873   0.10693   0.06924   0.06935
H          H       0.88921   0.06870   0.07681   0.06925
H          H       0.93745   0.82286   0.13932   0.06921
H          H       0.81942   0.89152   0.06414   0.06958
H          H       0.10303   0.92405   0.06939   0.06974
H          H       0.06878   0.17940   0.06874   0.06944
H          H       0.41006   0.06016   0.35893   0.06357
H          H       0.93757   0.35137   0.36957   0.06534
H          H       0.64860   0.58782   0.32978   0.06341
H          H       0.58761   0.93995   0.36918   0.06265
H          H       0.06227   0.64845   0.38111   0.06461
H          H       0.34984   0.41061   0.37795   0.06502
H          H       0.48354   0.94735   0.47969   0.10173
H          H       0.05245   0.53757   0.46699   0.10082
H          H       0.46212   0.51687   0.46572   0.10372
H          H       0.51654   0.05593   0.46190   0.10411
H          H       0.94657   0.46234   0.47417   0.10145
H          H       0.53776   0.48532   0.47482   0.10249
H          H       0.49753   0.90585   0.49969   0.12612
H          H       0.09475   0.59268   0.48183   0.12793
H          H       0.40659   0.50232   0.48443   0.12692
H          H       0.50203   0.09703   0.47186   0.12689
H          H       0.90459   0.40709   0.49091   0.12763
H          H       0.59319   0.49895   0.48485   0.12666
H          H       0.56187   0.94693   0.16784   0.11042
H          H       0.05405   0.61608   0.15150   0.11084
H          H       0.38320   0.43354   0.17278   0.10817
H          H       0.43341   0.04945   0.16304   0.10953
H          H       0.94454   0.38438   0.15347   0.11089
H          H       0.61394   0.55997   0.14288   0.10881
H          H       0.54894   0.98889   0.15341   0.10269
H          H       0.01172   0.56115   0.13818   0.10207
H          H       0.43827   0.44716   0.15842   0.10420
H          H       0.44690   0.00781   0.15801   0.10377
H          H       0.98659   0.43938   0.13867   0.10288
H          H       0.55908   0.54736   0.13750   0.10076
H          H       0.56016   0.01014   0.47313   0.10332
H          H       0.99029   0.55269   0.45190   0.10396
H          H       0.45099   0.43907   0.47431   0.10269
H          H       0.43911   0.98777   0.47974   0.10281
H          H       0.00772   0.44742   0.45778   0.10343
H          H       0.55101   0.56132   0.46295   0.10415
H          H       0.61559   0.05088   0.45555   0.11554
H          H       0.94914   0.56662   0.43247   0.11517
H          H       0.43732   0.38394   0.45728   0.11486
H          H       0.38378   0.94701   0.46068   0.11537
H          H       0.04862   0.43305   0.43880   0.11534
H          H       0.56515   0.61662   0.44406   0.11557
H          H       0.53738   0.05377   0.15352   0.10461
H          H       0.94565   0.48276   0.14490   0.10580
H          H       0.51525   0.46284   0.14318   0.10538
H          H       0.46222   0.94847   0.14233   0.10506
H          H       0.05330   0.51733   0.15069   0.10562
H          H       0.48324   0.53691   0.14838   0.10461
H          H       0.59334   0.09343   0.12807   0.12026
H          H       0.90541   0.49812   0.11843   0.12058
H          H       0.50011   0.40715   0.11932   0.11958
H          H       0.40628   0.90876   0.11569   0.11945
H          H       0.09297   0.50127   0.12284   0.12044
H          H       0.49928   0.59275   0.12044   0.12093
H          H       0.99143   0.92376   0.55854   0.10179
H          H       0.07719   0.06135   0.52853   0.09883
H          H       0.93774   0.01274   0.53574   0.09971
H          H       0.01428   0.07616   0.53261   0.09914
H          H       0.92421   0.94413   0.51337   0.09930
H          H       0.06102   0.98467   0.53076   0.09987
H          H       0.96309   0.86724   0.58238   0.11431
H          H       0.13384   0.08840   0.54315   0.11571
H          H       0.91088   0.04260   0.54663   0.11463
H          H       0.04343   0.13292   0.54589   0.11648
H          H       0.86768   0.91720   0.53119   0.11431
H          H       0.08733   0.95429   0.54278   0.11886
H          H       0.90461   0.87409   0.88674   0.11855
H          H       0.12679   0.03601   0.90213   0.11847
H          H       0.96740   0.09381   0.88724   0.11962
H          H       0.09277   0.12729   0.89243   0.11909
H          H       0.87531   0.96259   0.91281   0.11963
H          H       0.03664   0.91047   0.90838   0.11913
H          H       0.93376   0.93137   0.86310   0.10043
H          H       0.06916   0.00841   0.88405   0.09854
H          H       0.99494   0.06383   0.87157   0.09851
H          H       0.06318   0.06957   0.87510   0.09880
H          H       0.93295   0.98940   0.89298   0.09874
H          H       0.01001   0.94127   0.89322   0.09943
H          H       0.32610   0.20617   0.77457   0.11003
H          H       0.79347   0.11780   0.77354   0.10904
H          H       0.88203   0.67414   0.77399   0.11052
H          H       0.67547   0.79284   0.76724   0.10881
H          H       0.20761   0.88249   0.77081   0.11055
H          H       0.11932   0.32596   0.76580   0.10975
H          H       0.31941   0.11646   0.79929   0.10846
H          H       0.88268   0.20208   0.78352   0.10936
H          H       0.79903   0.68065   0.80746   0.11123
H          H       0.68159   0.88244   0.78666   0.10889
H          H       0.11829   0.79849   0.79528   0.10709
H          H       0.20252   0.32004   0.79940   0.11003
H          H       0.40651   0.19967   0.87962   0.10644
H          H       0.79928   0.20533   0.86429   0.10826
H          H       0.79413   0.59228   0.86034   0.10840
H          H       0.59437   0.79907   0.86393   0.10722
H          H       0.20181   0.79593   0.87894   0.10687
H          H       0.20619   0.40740   0.86814   0.10812
H          H       0.36773   0.25130   0.66702   0.11323
H          H       0.74732   0.11382   0.66348   0.11053
H          H       0.88418   0.63132   0.65241   0.11350
H          H       0.63415   0.74773   0.65547   0.11345
H          H       0.25290   0.88329   0.65272   0.11294
H          H       0.11562   0.36739   0.65625   0.11042
H          H       0.40340   0.30862   0.67763   0.11414
H          H       0.69013   0.09261   0.68002   0.11130
H          H       0.90556   0.59544   0.66275   0.11086
H          H       0.59838   0.69028   0.66687   0.11253
H          H       0.31022   0.90476   0.66517   0.11104
H          H       0.09368   0.40277   0.66600   0.11203
H          H       0.44639   0.29596   0.52067   0.11593
H          H       0.70379   0.15051   0.52146   0.11631
H          H       0.84975   0.55266   0.51590   0.11606
H          H       0.55162   0.70303   0.51622   0.11567
H          H       0.29516   0.84608   0.50334   0.11621
H          H       0.14914   0.44690   0.50723   0.11558
H          H       0.41111   0.23893   0.50004   0.11529
H          H       0.76079   0.17336   0.49662   0.11281
H          H       0.82766   0.58760   0.49969   0.11455
H          H       0.58585   0.76026   0.49692   0.11500
H          H       0.23825   0.82361   0.48110   0.11257
H          H       0.17229   0.41303   0.48610   0.11530
H          H       0.29024   0.17636   0.59551   0.11259
H          H       0.82295   0.11091   0.59341   0.11288
H          H       0.88665   0.71116   0.59370   0.11220
H          H       0.71301   0.82200   0.59545   0.11279
H          H       0.17927   0.89097   0.60373   0.11032
H          H       0.11646   0.29030   0.57993   0.11291
H          H       0.23375   0.15075   0.54792   0.11214
H          H       0.84897   0.08032   0.54763   0.10927
H          H       0.91690   0.76790   0.54769   0.10771
H          H       0.76990   0.84743   0.55705   0.11024
H          H       0.15394   0.92225   0.56204   0.11062
H          H       0.08660   0.23376   0.52912   0.11168
H          H       0.21553   0.08189   0.85347   0.11239
H          H       0.91899   0.13420   0.84279   0.11297
H          H       0.87062   0.78477   0.87764   0.11501
H          H       0.78516   0.91794   0.84955   0.11293
H          H       0.08126   0.86552   0.84398   0.11228
H          H       0.13174   0.21559   0.85815   0.11152
H          H       0.27220   0.10760   0.90232   0.11020
H          H       0.89290   0.16493   0.88978   0.11022
H          H       0.83964   0.72768   0.92277   0.11221
H          H       0.72806   0.89215   0.89054   0.11261
H          H       0.10684   0.83432   0.88830   0.11009
H          H       0.16183   0.27238   0.90930   0.10920
H          H       0.34125   0.09556   0.93187   0.10861
H          H       0.90055   0.24421   0.94010   0.11044
H          H       0.75604   0.65451   0.95950   0.10959
H          H       0.65902   0.90118   0.93884   0.10956
H          H       0.09927   0.75712   0.94695   0.11122
H          H       0.24333   0.34412   0.96029   0.10976
H          H       0.36877   0.06565   0.94296   0.10483
H          H       0.93041   0.30196   0.95148   0.10621
H          H       0.69834   0.62665   0.96917   0.10418
H          H       0.63182   0.93150   0.95676   0.10634
H          H       0.06921   0.69942   0.96136   0.10687
H          H       0.30080   0.37183   0.98188   0.10567
H          H       0.45294   0.14548   0.80126   0.11915
H          H       0.85497   0.30625   0.76106   0.11971
H          H       0.69395   0.54939   0.75239   0.11975
H          H       0.54943   0.85519   0.78447   0.11942
H          H       0.14686   0.69453   0.79686   0.11926
H          H       0.30772   0.45164   0.77820   0.11946
H          H       0.42506   0.17504   0.78143   0.11060
H          H       0.82562   0.24845   0.74289   0.11109
H          H       0.75176   0.57791   0.73539   0.11010
H          H       0.57702   0.82527   0.75916   0.11045
H          H       0.17659   0.75223   0.77566   0.11197
H          H       0.25018   0.42354   0.75150   0.11167
H          H       0.45879   0.34912   0.96056   0.07353
H          H       0.65097   0.10874   0.96534   0.07336
H          H       0.89123   0.54056   0.94841   0.07312
H          H       0.54184   0.65029   0.95035   0.07282
H          H       0.35000   0.89384   0.96249   0.07285
H          H       0.10984   0.45986   0.94669   0.07306
H          H       0.18110   0.11065   0.58738   0.06982
H          H       0.88951   0.06866   0.58646   0.06813
H          H       0.92760   0.82015   0.58669   0.06838
H          H       0.82242   0.88721   0.60563   0.06983
H          H       0.11406   0.93478   0.60625   0.06996
H          H       0.07406   0.18098   0.57080   0.06972
H          H       0.41260   0.05974   0.88547   0.06454
H          H       0.93819   0.35142   0.88215   0.06382
H          H       0.64883   0.58577   0.89109   0.06334
H          H       0.58953   0.93921   0.89444   0.06483
H          H       0.06208   0.64968   0.89850   0.06436
H          H       0.35135   0.41376   0.91611   0.06520
H          H       0.48143   0.94348   0.95679   0.10385
H          H       0.05662   0.53669   0.94419   0.10503
H          H       0.46432   0.51858   0.96398   0.10244
H          H       0.51807   0.05365   0.97232   0.10235
H          H       0.94328   0.46389   0.93872   0.10497
H          H       0.53661   0.47893   0.94504   0.10465
H          H       0.49559   0.90225   0.97519   0.12596
H          H       0.09816   0.59203   0.96714   0.12687
H          H       0.40928   0.50561   0.98559   0.12658
H          H       0.50372   0.09471   0.99648   0.12656
H          H       0.90146   0.40854   0.95172   0.12615
H          H       0.59169   0.49199   0.95654   0.12695
H          H       0.56996   0.95151   0.68928   0.11120
H          H       0.05026   0.61900   0.68497   0.11031
H          H       0.38263   0.43335   0.68812   0.11260
H          H       0.43738   0.05268   0.67446   0.11305
H          H       0.95232   0.38355   0.67506   0.11046
H          H       0.61732   0.56797   0.67964   0.11396
H          H       0.55644   0.99301   0.67359   0.10603
H          H       0.00868   0.56399   0.66328   0.10506
H          H       0.43741   0.44606   0.66834   0.10363
H          H       0.45083   0.01110   0.65511   0.10220
H          H       0.99448   0.43852   0.66552   0.10460
H          H       0.56255   0.55539   0.67038   0.10551
H          H       0.56039   0.01400   0.98622   0.10105
H          H       0.98599   0.54638   0.97327   0.10181
H          H       0.45161   0.43852   0.97696   0.10228
H          H       0.43948   0.98991   0.96775   0.10308
H          H       0.01584   0.45681   0.98189   0.10171
H          H       0.54667   0.56029   0.97937   0.10046
H          H       0.61559   0.05508   0.96914   0.11540
H          H       0.94500   0.56044   0.95301   0.11606
H          H       0.43755   0.38334   0.95813   0.11570
H          H       0.38423   0.94909   0.94847   0.11567
H          H       0.05577   0.44129   0.96086   0.11612
H          H       0.56141   0.61551   0.95632   0.11614
H          H       0.53884   0.05049   0.63572   0.10507
H          H       0.95141   0.48889   0.61983   0.10204
H          H       0.51421   0.46203   0.63965   0.10405
H          H       0.46375   0.94617   0.65298   0.10398
H          H       0.04979   0.51146   0.61945   0.10276
H          H       0.48651   0.53668   0.63543   0.10338
H          H       0.59465   0.09081   0.61239   0.11907
H          H       0.91111   0.50418   0.59353   0.11956
H          H       0.49873   0.40639   0.61394   0.12041
H          H       0.40801   0.90645   0.62517   0.12092
H          H       0.08882   0.49458   0.59238   0.12136
H          H       0.50278   0.59250   0.60523   0.11937
C          C       0.03460   0.06797   0.20525   0.06691
C          C       0.93109   0.96733   0.20477   0.06125
C          C       0.03108   0.96409   0.20759   0.06297
C          C       0.96370   0.93232   0.21157   0.06724
C          C       0.06703   0.03255   0.20733   0.06341
C          C       0.96737   0.03602   0.20322   0.06630
C          C       0.98342   0.01736   0.19972  -0.01548
C          C       0.98186   0.96706   0.20136  -0.01452
C          C       0.03232   0.01585   0.20109  -0.01516
C          C       0.01490   0.98266   0.20136  -0.01553
C          C       0.01650   0.03311   0.20056  -0.01712
C          C       0.96590   0.98419   0.20019  -0.01670
C          C       0.96471   0.91262   0.11203  -0.12028
C          C       0.08585   0.05714   0.11867  -0.11596
C          C       0.94487   0.03196   0.10699  -0.11879
C          C       0.02966   0.08633   0.11119  -0.11850
C          C       0.91278   0.94107   0.12317  -0.11591
C          C       0.05593   0.96991   0.12060  -0.11365
C          C       0.94735   0.88034   0.12473  -0.16926
C          C       0.11814   0.07303   0.12643  -0.16818
C          C       0.92959   0.04897   0.11144  -0.16566
C          C       0.04633   0.11871   0.11496  -0.16524
C          C       0.88044   0.92473   0.13028  -0.16958
C          C       0.07193   0.95366   0.13082  -0.16949
C          C       0.92829   0.86640   0.23927   0.19729
C          C       0.13330   0.06482   0.22480   0.19768
C          C       0.93632   0.07117   0.21443   0.19645
C          C       0.06919   0.13444   0.21496   0.19684
C          C       0.86459   0.93426   0.21966   0.19836
C          C       0.06358   0.93035   0.23015   0.19901
C          C       0.92690   0.88610   0.33831  -0.15082
C          C       0.11459   0.04032   0.31410  -0.15382
C          C       0.95918   0.07567   0.30992  -0.15050
C          C       0.07409   0.11618   0.30989  -0.15083
C          C       0.88270   0.96051   0.30125  -0.15528
C          C       0.03868   0.92433   0.31734  -0.15424
C          C       0.94459   0.91826   0.32469  -0.12895
C          C       0.08233   0.02469   0.30534  -0.12417
C          C       0.97412   0.05835   0.30458  -0.12563
C          C       0.05712   0.08381   0.30520  -0.12549
C          C       0.91500   0.97648   0.29395  -0.12145
C          C       0.02286   0.94071   0.30576  -0.12772
C          C       0.44838   0.34079   0.35980   0.07022
C          C       0.65904   0.10630   0.36501   0.07073
C          C       0.89275   0.55180   0.35109   0.07205
C          C       0.55153   0.65903   0.35513   0.07254
C          C       0.34022   0.89291   0.35739   0.07036
C          C       0.10524   0.44699   0.34991   0.07250
C          C       0.18548   0.09990   0.16291   0.07243
C          C       0.89919   0.08583   0.15931   0.07097
C          C       0.91660   0.81493   0.20319   0.06890
C          C       0.81254   0.89874   0.15736   0.07412
C          C       0.09787   0.91235   0.16859   0.07442
C          C       0.08513   0.18650   0.15399   0.07101
C          C       0.36742   0.20814   0.30878   0.07363
C          C       0.79170   0.16005   0.30596   0.07425
C          C       0.84005   0.63166   0.30995   0.07441
C          C       0.63055   0.79214   0.30869   0.07297
C          C       0.20751   0.83982   0.30412   0.07149
C          C       0.15977   0.36869   0.29717   0.07262
C          C       0.33568   0.19380   0.27612  -0.18981
C          C       0.80632   0.14299   0.27172  -0.18882
C          C       0.85739   0.66362   0.28026  -0.18901
C          C       0.66224   0.80651   0.27437  -0.18871
C          C       0.19275   0.85714   0.27810  -0.18868
C          C       0.14278   0.33696   0.26280  -0.18816
C          C       0.31755   0.16121   0.26533   0.07541
C          C       0.83887   0.15772   0.25958   0.07605
C          C       0.84267   0.68144   0.27011   0.07420
C          C       0.68043   0.83909   0.26431   0.07594
C          C       0.16014   0.84249   0.27161   0.07632
C          C       0.15743   0.31904   0.25321   0.07465
C          C       0.33184   0.14315   0.28247  -0.18554
C          C       0.85669   0.19018   0.27723  -0.18570
C          C       0.81014   0.66648   0.28297  -0.18597
C          C       0.66620   0.85717   0.28409  -0.18654
C          C       0.14225   0.81003   0.28918  -0.18736
C          C       0.18971   0.33360   0.27459  -0.18607
C          C       0.36372   0.15701   0.31126   0.07615
C          C       0.84253   0.20787   0.30761   0.07600
C          C       0.79211   0.63437   0.30991   0.07679
C          C       0.63433   0.84331   0.31486   0.07671
C          C       0.15653   0.79210   0.30997   0.07741
C          C       0.20733   0.36540   0.30676   0.07550
C          C       0.38093   0.18947   0.32681  -0.18747
C          C       0.81011   0.19234   0.32394  -0.18666
C          C       0.80775   0.61763   0.32661  -0.18378
C          C       0.61711   0.81080   0.32948  -0.18480
C          C       0.18906   0.80738   0.31796  -0.18774
C          C       0.19188   0.38245   0.31905  -0.18495
C          C       0.37947   0.13856   0.32171   0.07034
C          C       0.86061   0.24214   0.32088   0.07025
C          C       0.75773   0.61819   0.31764   0.06873
C          C       0.61849   0.86169   0.32891   0.06947
C          C       0.13847   0.75779   0.32223   0.06938
C          C       0.24141   0.38113   0.32526   0.07002
C          C       0.28375   0.14569   0.23779   0.06720
C          C       0.85433   0.13940   0.23160   0.06632
C          C       0.86117   0.71558   0.24977   0.06679
C          C       0.71419   0.85421   0.23533   0.06695
C          C       0.14460   0.86086   0.24666   0.06671
C          C       0.13921   0.28523   0.22451   0.06601
C          C       0.38721   0.24223   0.32403   0.06387
C          C       0.75764   0.14514   0.32393   0.06438
C          C       0.85457   0.61211   0.32311   0.06409
C          C       0.61096   0.75799   0.32248   0.06453
C          C       0.24160   0.85445   0.31920   0.06401
C          C       0.14497   0.38802   0.31162   0.06475
C          C       0.38480   0.26295   0.23433  -0.14094
C          C       0.73694   0.12098   0.23803  -0.14097
C          C       0.87764   0.61501   0.23137  -0.14056
C          C       0.61431   0.73777   0.23285  -0.14035
C          C       0.26246   0.87989   0.23863  -0.13944
C          C       0.12143   0.38476   0.22266  -0.13985
C          C       0.40514   0.29487   0.24357  -0.11404
C          C       0.70498   0.10872   0.24956  -0.11578
C          C       0.88943   0.59489   0.23818  -0.11321
C          C       0.59458   0.70572   0.24128  -0.11630
C          C       0.29442   0.89208   0.24909  -0.11628
C          C       0.10900   0.40433   0.23230  -0.11538
C          C       0.42803   0.30715   0.34514   0.04825
C          C       0.69266   0.11971   0.34987   0.05002
C          C       0.87909   0.57178   0.33916   0.04890
C          C       0.57130   0.69279   0.34172   0.04787
C          C       0.30663   0.87965   0.34263   0.05006
C          C       0.11919   0.42731   0.33373   0.04881
C          C       0.42965   0.28661   0.43836  -0.12234
C          C       0.71317   0.14278   0.44008  -0.12076
C          C       0.85695   0.56961   0.43414  -0.12039
C          C       0.56867   0.71284   0.43468  -0.12057
C          C       0.28594   0.85508   0.42706  -0.12215
C          C       0.14192   0.42993   0.42561  -0.12137
C          C       0.40983   0.25460   0.42670  -0.14184
C          C       0.74517   0.15561   0.42588  -0.13980
C          C       0.84452   0.58919   0.42485  -0.14208
C          C       0.58789   0.74496   0.42381  -0.14112
C          C       0.25397   0.84243   0.41422  -0.13799
C          C       0.15492   0.41090   0.41351  -0.14155
C          C       0.27172   0.15624   0.13522  -0.14035
C          C       0.84277   0.11550   0.13427  -0.14121
C          C       0.88703   0.72910   0.16208  -0.13987
C          C       0.72599   0.84271   0.13509  -0.14220
C          C       0.15415   0.88248   0.13975  -0.14347
C          C       0.11480   0.27285   0.13000  -0.14089
C          C       0.23982   0.14098   0.11007  -0.12630
C          C       0.85767   0.09847   0.10994  -0.12770
C          C       0.90484   0.76135   0.14766  -0.12623
C          C       0.75788   0.85737   0.10892  -0.12471
C          C       0.13872   0.89893   0.11420  -0.12599
C          C       0.09773   0.24086   0.10570  -0.12397
C          C       0.21891   0.11517   0.18872   0.04870
C          C       0.88435   0.10447   0.18341   0.04945
C          C       0.89730   0.78120   0.21978   0.04801
C          C       0.77907   0.88358   0.18434   0.04841
C          C       0.11381   0.89490   0.19701   0.04755
C          C       0.10411   0.22010   0.17668   0.05015
C          C       0.23096   0.10462   0.29174  -0.11055
C          C       0.89588   0.12833   0.28141  -0.10986
C          C       0.87124   0.76772   0.30688  -0.10755
C          C       0.76726   0.89488   0.28588  -0.10939
C          C       0.10466   0.87369   0.30587  -0.11120
C          C       0.12864   0.23249   0.27110  -0.10969
C          C       0.26278   0.11946   0.31472  -0.13839
C          C       0.88121   0.14548   0.30438  -0.13787
C          C       0.85363   0.73557   0.32153  -0.13774
C          C       0.73547   0.88065   0.30973  -0.13901
C          C       0.11955   0.85675   0.32911  -0.14083
C          C       0.14586   0.26438   0.29385  -0.13991
C          C       0.36370   0.10752   0.36773  -0.13709
C          C       0.89106   0.25755   0.37253  -0.13737
C          C       0.74192   0.63471   0.33994  -0.13540
C          C       0.63436   0.89284   0.37315  -0.13731
C          C       0.11032   0.74267   0.39507  -0.13892
C          C       0.25577   0.36539   0.38048  -0.13783
C          C       0.37897   0.09049   0.37524  -0.12922
C          C       0.90755   0.28989   0.38442  -0.12965
C          C       0.70957   0.61935   0.34401  -0.13115
C          C       0.61899   0.90976   0.38417  -0.12949
C          C       0.09387   0.71030   0.40662  -0.12890
C          C       0.28800   0.38038   0.39411  -0.12910
C          C       0.41061   0.10410   0.33946   0.05142
C          C       0.89395   0.30777   0.34724   0.05213
C          C       0.69177   0.58679   0.32920   0.05460
C          C       0.58708   0.89592   0.35433   0.05218
C          C       0.10541   0.69222   0.34797   0.05111
C          C       0.30683   0.41175   0.35532   0.04978
C          C       0.42649   0.13516   0.29358  -0.09896
C          C       0.86352   0.29246   0.29527  -0.10102
C          C       0.70737   0.57002   0.30835  -0.10016
C          C       0.57105   0.86472   0.31075  -0.10114
C          C       0.13355   0.70725   0.27494  -0.10271
C          C       0.29254   0.42773   0.30199  -0.10039
C          C       0.41106   0.15190   0.28406  -0.13347
C          C       0.84733   0.26027   0.28163  -0.13437
C          C       0.73963   0.58552   0.30138  -0.13198
C          C       0.58659   0.84813   0.29726  -0.13332
C          C       0.14966   0.73949   0.26186  -0.13406
C          C       0.26046   0.41259   0.28668  -0.13322
C          C       0.42572   0.08541   0.34554   0.06646
C          C       0.91241   0.34167   0.35481   0.06591
C          C       0.65796   0.57184   0.33116   0.06373
C          C       0.57190   0.91457   0.36141   0.06810
C          C       0.08710   0.65826   0.35646   0.06943
C          C       0.34062   0.42647   0.36275   0.06623
C          C       0.51579   0.97167   0.31754   0.05887
C          C       0.02843   0.54518   0.30333   0.05552
C          C       0.45438   0.48264   0.31273   0.05734
C          C       0.48233   0.02832   0.31146   0.05667
C          C       0.97017   0.45501   0.30713   0.05718
C          C       0.54448   0.51610   0.30792   0.05998
C          C       0.51328   0.00033   0.31512  -0.03001
C          C      -0.00043   0.51401   0.30245  -0.03224
C          C       0.48586   0.48599   0.31021  -0.03068
C          C       0.48573   0.00020   0.31338  -0.03127
C          C       0.99900   0.48619   0.30521  -0.03214
C          C       0.51334   0.51362   0.30872  -0.03080
C          C       0.54468   0.02871   0.31366   0.05792
C          C       0.97131   0.51703   0.29872   0.05772
C          C       0.48372   0.45496   0.30886   0.05955
C          C       0.45466   0.97132   0.31179   0.06189
C          C       0.02718   0.48305   0.30426   0.05786
C          C       0.51639   0.54502   0.30588   0.05872
C          C       0.50064   0.94719   0.41123  -0.12347
C          C       0.05286   0.55459   0.39661  -0.12020
C          C       0.44494   0.49866   0.40103  -0.12065
C          C       0.49838   0.05446   0.39603  -0.12085
C          C       0.94603   0.44541   0.40276  -0.12084
C          C       0.55438   0.50167   0.40201  -0.12184
C          C       0.50827   0.92375   0.42211  -0.16551
C          C       0.07682   0.58557   0.40500  -0.17029
C          C       0.41380   0.49077   0.41118  -0.16650
C          C       0.49045   0.07775   0.40122  -0.16614
C          C       0.92232   0.41435   0.41245  -0.16837
C          C       0.58543   0.50909   0.40755  -0.16492
C          C       0.53186   0.92451   0.33987   0.20443
C          C       0.07646   0.60833   0.32147   0.20483
C          C       0.39093   0.46602   0.33415   0.20469
C          C       0.46563   0.07522   0.32306   0.20408
C          C       0.92265   0.39171   0.32773   0.20494
C          C       0.60766   0.53176   0.31991   0.20345
C          C       0.54535   0.94755   0.23854  -0.18604
C          C       0.05329   0.59882   0.22170  -0.18889
C          C       0.40046   0.45128   0.23900  -0.18779
C          C       0.45101   0.05032   0.23093  -0.18659
C          C       0.94545   0.40146   0.22520  -0.18865
C          C       0.59742   0.54436   0.21806  -0.18422
C          C       0.53750   0.97063   0.22887  -0.12209
C          C       0.02989   0.56790   0.21342  -0.12189
C          C       0.43147   0.45946   0.22941  -0.12087
C          C       0.45917   0.02743   0.22638  -0.12160
C          C       0.96864   0.43246   0.21586  -0.12198
C          C       0.56652   0.53673   0.21370  -0.12226
C          C       0.60839   0.07486   0.28977   0.19664
C          C       0.92457   0.53347   0.27337   0.19980
C          C       0.46739   0.39160   0.28548   0.19681
C          C       0.39115   0.92530   0.28549   0.19689
C          C       0.07341   0.46590   0.27814   0.19753
C          C       0.53345   0.60858   0.27976   0.19921
C          C       0.56727   0.02892   0.40015  -0.12051
C          C       0.97127   0.54019   0.38116  -0.11866
C          C       0.46237   0.43221   0.39880  -0.12119
C          C       0.43207   0.96982   0.40283  -0.12166
C          C       0.02691   0.45983   0.38712  -0.12136
C          C       0.53905   0.56806   0.39041  -0.11981
C          C       0.59837   0.05168   0.39051  -0.17988
C          C       0.94828   0.54806   0.37055  -0.18229
C          C       0.45462   0.40128   0.38938  -0.17924
C          C       0.40101   0.94707   0.39212  -0.17832
C          C       0.04973   0.45166   0.37647  -0.18062
C          C       0.54711   0.59908   0.37982  -0.18126
C          C       0.55449   0.05331   0.22035  -0.12054
C          C       0.94634   0.50101   0.20846  -0.11811
C          C       0.49838   0.44563   0.21272  -0.11989
C          C       0.44508   0.94790   0.21295  -0.11921
C          C       0.05237   0.49899   0.21425  -0.11894
C          C       0.50113   0.55434   0.21337  -0.12080
C          C       0.58587   0.07573   0.20660  -0.16751
C          C       0.92363   0.50945   0.19383  -0.17223
C          C       0.49002   0.41439   0.19942  -0.16842
C          C       0.41372   0.92554   0.19803  -0.17031
C          C       0.07479   0.49018   0.19909  -0.17022
C          C       0.50991   0.58564   0.19817  -0.17085
C          C       0.03666   0.06833   0.70171   0.06607
C          C       0.93305   0.96864   0.70277   0.07001
C          C       0.03315   0.96510   0.70997   0.06740
C          C       0.96482   0.93243   0.70756   0.06271
C          C       0.06860   0.03253   0.70472   0.06785
C          C       0.96859   0.03597   0.70248   0.06621
C          C       0.98518   0.01785   0.69554  -0.01458
C          C       0.98328   0.96719   0.69890  -0.01655
C          C       0.03385   0.01613   0.69765  -0.01446
C          C       0.01643   0.98304   0.70018  -0.01570
C          C       0.01828   0.03359   0.69589  -0.01741
C          C       0.96781   0.98477   0.69593  -0.01552
C          C       0.97215   0.91315   0.62960  -0.11383
C          C       0.08782   0.05558   0.61082  -0.11615
C          C       0.94445   0.03058   0.61277  -0.11843
C          C       0.03169   0.08723   0.61101  -0.11593
C          C       0.91378   0.94789   0.60272  -0.12293
C          C       0.05565   0.96850   0.61408  -0.11945
C          C       0.95596   0.88088   0.64326  -0.17195
C          C       0.12012   0.07112   0.61980  -0.16506
C          C       0.92901   0.04743   0.62006  -0.16686
C          C       0.04820   0.11957   0.61950  -0.16770
C          C       0.88149   0.93238   0.61346  -0.16427
C          C       0.07087   0.95148   0.62210  -0.16776
C          C       0.93098   0.86610   0.73565   0.19874
C          C       0.13479   0.06416   0.72512   0.19636
C          C       0.93707   0.07070   0.71952   0.19723
C          C       0.07082   0.13467   0.72109   0.19728
C          C       0.86697   0.93720   0.72651   0.19635
C          C       0.06424   0.93010   0.72877   0.19564
C          C       0.92341   0.88520   0.81326  -0.15413
C          C       0.11564   0.04111   0.81939  -0.15072
C          C       0.96125   0.07619   0.80930  -0.14948
C          C       0.07580   0.11582   0.81238  -0.15129
C          C       0.88624   0.95863   0.82545  -0.14931
C          C       0.04174   0.92666   0.82510  -0.15045
C          C       0.93993   0.91743   0.79959  -0.12744
C          C       0.08341   0.02580   0.80916  -0.12718
C          C       0.97645   0.05916   0.80088  -0.12596
C          C       0.05911   0.08353   0.80263  -0.12647
C          C       0.91846   0.97368   0.81385  -0.12910
C          C       0.02683   0.94397   0.81619  -0.12585
C          C       0.44923   0.34031   0.85926   0.07182
C          C       0.65966   0.10776   0.86380   0.07161
C          C       0.89221   0.55055   0.84779   0.07140
C          C       0.55193   0.65885   0.84922   0.07052
C          C       0.34146   0.89338   0.85933   0.07252
C          C       0.10780   0.44895   0.84728   0.07110
C          C       0.18734   0.10057   0.67247   0.06914
C          C       0.90001   0.08586   0.66839   0.07084
C          C       0.91392   0.81365   0.68118   0.07378
C          C       0.81510   0.89872   0.68057   0.07006
C          C       0.10210   0.91589   0.68063   0.06889
C          C       0.08829   0.18728   0.66311   0.07089
C          C       0.36870   0.20692   0.82724   0.07307
C          C       0.79244   0.15987   0.81938   0.07365
C          C       0.83976   0.63097   0.81855   0.07240
C          C       0.63254   0.79198   0.81459   0.07388
C          C       0.20859   0.84077   0.82392   0.07456
C          C       0.16102   0.36901   0.81798   0.07374
C          C       0.33707   0.19222   0.79211  -0.18946
C          C       0.80731   0.14295   0.78643  -0.18906
C          C       0.85702   0.66304   0.79020  -0.18976
C          C       0.66438   0.80678   0.78215  -0.18963
C          C       0.19371   0.85750   0.78844  -0.18838
C          C       0.14422   0.33717   0.78461  -0.18907
C          C       0.31894   0.15953   0.78565   0.07373
C          C       0.83997   0.15787   0.77692   0.07432
C          C       0.84261   0.68128   0.78917   0.07490
C          C       0.68249   0.83949   0.77535   0.07273
C          C       0.16101   0.84264   0.78201   0.07224
C          C       0.15887   0.31916   0.78113   0.07458
C          C       0.33315   0.14163   0.81070  -0.18294
C          C       0.85757   0.19027   0.79744  -0.18554
C          C       0.81039   0.66679   0.81334  -0.18555
C          C       0.66802   0.85725   0.79857  -0.18316
C          C       0.14343   0.81041   0.80742  -0.18469
C          C       0.19092   0.33364   0.80817  -0.18489
C          C       0.36495   0.15577   0.84201   0.07560
C          C       0.84317   0.20780   0.82698   0.07646
C          C       0.79243   0.63451   0.83561   0.07769
C          C       0.63614   0.84299   0.82926   0.07587
C          C       0.15780   0.79310   0.84082   0.07461
C          C       0.20841   0.36562   0.83715   0.07681
C          C       0.38203   0.18835   0.85287  -0.18423
C          C       0.81069   0.19211   0.83957  -0.18513
C          C       0.80763   0.61717   0.84033  -0.18604
C          C       0.61898   0.81042   0.83862  -0.18504
C          C       0.19030   0.80884   0.85115  -0.18275
C          C       0.19297   0.38272   0.84381  -0.18678
C          C       0.38108   0.13769   0.85664   0.07070
C          C       0.86099   0.24211   0.84001   0.07043
C          C       0.75813   0.61816   0.84751   0.06961
C          C       0.62009   0.86105   0.84710   0.07206
C          C       0.14000   0.75893   0.85885   0.07004
C          C       0.24253   0.38187   0.85520   0.07142
C          C       0.28535   0.14405   0.75337   0.06567
C          C       0.85574   0.13991   0.74631   0.06643
C          C       0.86098   0.71522   0.76188   0.06725
C          C       0.71632   0.85507   0.74663   0.06685
C          C       0.14528   0.86056   0.75074   0.06656
C          C       0.14112   0.28545   0.74897   0.06546
C          C       0.38865   0.24118   0.83636   0.06486
C          C       0.75828   0.14529   0.83272   0.06358
C          C       0.85404   0.61108   0.82629   0.06463
C          C       0.61267   0.75774   0.82398   0.06331
C          C       0.24278   0.85512   0.83293   0.06420
C          C       0.14651   0.38873   0.82604   0.06371
C          C       0.38552   0.26119   0.74491  -0.14300
C          C       0.73786   0.12195   0.74283  -0.13863
C          C       0.87668   0.61389   0.73223  -0.14176
C          C       0.61615   0.73776   0.73321  -0.13997
C          C       0.26278   0.87663   0.73543  -0.14121
C          C       0.12338   0.38529   0.73398  -0.13871
C          C       0.40561   0.29325   0.74950  -0.11339
C          C       0.70592   0.11022   0.75087  -0.11369
C          C       0.88851   0.59377   0.73678  -0.11217
C          C       0.59604   0.70570   0.73841  -0.11270
C          C       0.29474   0.88839   0.74109  -0.11224
C          C       0.11125   0.40518   0.73817  -0.11305
C          C       0.42923   0.30652   0.84765   0.04769
C          C       0.69328   0.12094   0.85094   0.04876
C          C       0.87860   0.57060   0.83745   0.04847
C          C       0.57224   0.69255   0.83674   0.04878
C          C       0.30779   0.87949   0.84603   0.04758
C          C       0.12140   0.42887   0.83644   0.04849
C          C       0.43193   0.28669   0.94136  -0.12136
C          C       0.71351   0.14342   0.94389  -0.12116
C          C       0.85670   0.56834   0.93408  -0.12184
C          C       0.56930   0.71237   0.93001  -0.12251
C          C       0.28793   0.85852   0.94511  -0.12265
C          C       0.14384   0.43181   0.93088  -0.12112
C          C       0.41224   0.25458   0.93469  -0.13975
C          C       0.74550   0.15569   0.93359  -0.14012
C          C       0.84432   0.58800   0.92731  -0.14066
C          C       0.58890   0.74447   0.92245  -0.13939
C          C       0.25592   0.84623   0.93755  -0.13853
C          C       0.15641   0.41231   0.92476  -0.14014
C          C       0.27393   0.15602   0.65401  -0.14152
C          C       0.84364   0.11572   0.65015  -0.14113
C          C       0.88335   0.72719   0.65742  -0.14186
C          C       0.72872   0.84268   0.65315  -0.14111
C          C       0.15814   0.88564   0.65871  -0.13867
C          C       0.11946   0.27396   0.64255  -0.14272
C          C       0.24215   0.14147   0.62664  -0.12889
C          C       0.85840   0.09864   0.62384  -0.12807
C          C       0.90030   0.75912   0.63128  -0.12486
C          C       0.76075   0.85711   0.63104  -0.12713
C          C       0.14377   0.90315   0.63468  -0.12645
C          C       0.10280   0.24215   0.61364  -0.12884
C          C       0.22067   0.11469   0.69881   0.04858
C          C       0.88562   0.10490   0.69368   0.04802
C          C       0.89591   0.78025   0.71037   0.04532
C          C       0.78151   0.88438   0.70185   0.04777
C          C       0.11599   0.89630   0.70202   0.04937
C          C       0.10688   0.22069   0.69152   0.04761
C          C       0.23214   0.10246   0.79719  -0.10928
C          C       0.89804   0.12944   0.78851  -0.10796
C          C       0.87373   0.76834   0.81590  -0.10878
C          C       0.76908   0.89706   0.79402  -0.10830
C          C       0.10263   0.87070   0.79157  -0.10876
C          C       0.12878   0.23222   0.79749  -0.10954
C          C       0.26382   0.11679   0.82322  -0.13600
C          C       0.88344   0.14660   0.81372  -0.13560
C          C       0.85644   0.73647   0.84004  -0.14047
C          C       0.73719   0.88270   0.81558  -0.13706
C          C       0.11696   0.85326   0.81505  -0.13705
C          C       0.14564   0.26395   0.82486  -0.13475
C          C       0.36561   0.10660   0.90192  -0.13663
C          C       0.89072   0.25770   0.89883  -0.13873
C          C       0.74259   0.63169   0.91266  -0.13675
C          C       0.63520   0.89116   0.90319  -0.13865
C          C       0.10961   0.74351   0.91205  -0.13885
C          C       0.25733   0.36755   0.91944  -0.13881
C          C       0.38120   0.08984   0.90943  -0.12767
C          C       0.90732   0.29012   0.90643  -0.12818
C          C       0.71019   0.61590   0.91927  -0.12774
C          C       0.61982   0.90806   0.91456  -0.12734
C          C       0.09287   0.71112   0.92146  -0.12921
C          C       0.28961   0.38326   0.93260  -0.12697
C          C       0.41291   0.10372   0.87444   0.05177
C          C       0.89457   0.30795   0.85731   0.05059
C          C       0.69236   0.58591   0.86331   0.05131
C          C       0.58874   0.89518   0.87242   0.05109
C          C       0.10610   0.69314   0.87986   0.05101
C          C       0.30806   0.41385   0.88328   0.04995
C          C       0.42860   0.13495   0.83091  -0.10074
C          C       0.86458   0.29239   0.80067  -0.09994
C          C       0.70784   0.57222   0.79867  -0.10212
C          C       0.57330   0.86480   0.81896  -0.10023
C          C       0.13686   0.70854   0.83041  -0.10070
C          C       0.29330   0.42831   0.81950  -0.10136
C          C       0.41287   0.15140   0.82125  -0.13415
C          C       0.84826   0.26011   0.79175  -0.13568
C          C       0.74011   0.58821   0.79028  -0.13367
C          C       0.58882   0.84820   0.80598  -0.13535
C          C       0.15335   0.74078   0.81969  -0.13489
C          C       0.26117   0.41253   0.80563  -0.13495
C          C       0.42818   0.08510   0.87543   0.06620
C          C       0.91335   0.34189   0.85948   0.06606
C          C       0.65846   0.57061   0.86625   0.06810
C          C       0.57390   0.91414   0.87630   0.06585
C          C       0.08711   0.65923   0.87945   0.06376
C          C       0.34196   0.42898   0.88917   0.06679
C          C       0.51832   0.97193   0.81620   0.05705
C          C       0.02884   0.54608   0.80522   0.05618
C          C       0.45504   0.48279   0.81708   0.05500
C          C       0.48473   0.02858   0.81518   0.05677
C          C       0.97262   0.45551   0.80359   0.05666
C          C       0.54531   0.51671   0.80995   0.05531
C          C       0.51473  -0.00007   0.81327  -0.03142
C          C       0.00062   0.51458   0.80164  -0.03066
C          C       0.48631   0.48564   0.81235  -0.03074
C          C       0.48716  -0.00015   0.81274  -0.03147
C          C       0.00077   0.48709   0.80289  -0.03011
C          C       0.51383   0.51336   0.81051  -0.03223
C          C       0.54565   0.02900   0.81154   0.06220
C          C       0.97177   0.51671   0.79776   0.06055
C          C       0.48371   0.45439   0.80912   0.05953
C          C       0.45575   0.97146   0.81040   0.05982
C          C       0.02963   0.48495   0.80131   0.06067
C          C       0.51592   0.54441   0.80783   0.06062
C          C       0.50080   0.94536   0.89759  -0.12127
C          C       0.05515   0.55458   0.88671  -0.12013
C          C       0.44652   0.50001   0.90281  -0.12007
C          C       0.50039   0.05337   0.90689  -0.12059
C          C       0.94542   0.44644   0.88056  -0.11981
C          C       0.55416   0.49845   0.88654  -0.12061
C          C       0.50854   0.92202   0.90782  -0.16504
C          C       0.07864   0.58562   0.89952  -0.16498
C          C       0.41563   0.49287   0.91498  -0.16753
C          C       0.49262   0.07668   0.91990  -0.16481
C          C       0.92171   0.41534   0.88752  -0.16641
C          C       0.58510   0.50557   0.89263  -0.16760
C          C       0.53475   0.92492   0.83897   0.20489
C          C       0.07615   0.60942   0.83351   0.20453
C          C       0.39200   0.46747   0.84367   0.20587
C          C       0.46833   0.07550   0.84232   0.20344
C          C       0.92477   0.39201   0.81980   0.20417
C          C       0.60853   0.53196   0.82474   0.20553
C          C       0.55107   0.95028   0.75007  -0.18847
C          C       0.05115   0.60094   0.74388  -0.19118
C          C       0.40054   0.45152   0.75059  -0.19166
C          C       0.45445   0.05233   0.74201  -0.18909
C          C       0.95085   0.40114   0.73533  -0.18874
C          C       0.59964   0.54897   0.74013  -0.19020
C          C       0.54297   0.97316   0.73975  -0.12103
C          C       0.02816   0.56998   0.73055  -0.11897
C          C       0.43137   0.45916   0.73814  -0.11985
C          C       0.46253   0.02945   0.72978  -0.12101
C          C       0.97413   0.43210   0.72830  -0.12036
C          C       0.56877   0.54143   0.73358  -0.12119
C          C       0.60909   0.07566   0.78840   0.19673
C          C       0.92518   0.53332   0.77144   0.19679
C          C       0.46699   0.39086   0.78401   0.19834
C          C       0.39213   0.92503   0.78439   0.20055
C          C       0.07493   0.46656   0.77396   0.19742
C          C       0.53352   0.60803   0.77768   0.19762
C          C       0.56774   0.03141   0.90669  -0.12255
C          C       0.96896   0.53635   0.89256  -0.12231
C          C       0.46267   0.43164   0.89996  -0.12151
C          C       0.43272   0.97113   0.89524  -0.12044
C          C       0.03240   0.46580   0.89856  -0.12209
C          C       0.53628   0.56713   0.89975  -0.12169
C          C       0.59874   0.05442   0.89728  -0.17924
C          C       0.94600   0.54428   0.88139  -0.17882
C          C       0.45468   0.40063   0.88949  -0.18037
C          C       0.40169   0.94828   0.88454  -0.18182
C          C       0.05480   0.45704   0.88697  -0.18014
C          C       0.54469   0.59821   0.88692  -0.17926
C          C       0.55560   0.05185   0.70990  -0.12187
C          C       0.94959   0.50410   0.69397  -0.12284
C          C       0.49767   0.44487   0.71034  -0.11988
C          C       0.44635   0.94678   0.71792  -0.12181
C          C       0.05148   0.49653   0.69528  -0.12088
C          C       0.50269   0.55392   0.70637  -0.12171
C          C       0.58690   0.07455   0.69684  -0.16669
C          C       0.92691   0.51257   0.67923  -0.16515
C          C       0.48915   0.41361   0.69620  -0.16923
C          C       0.41507   0.92428   0.70280  -0.16880
C          C       0.07344   0.48709   0.68001  -0.16953
C          C       0.51169   0.58526   0.68965  -0.16722
N          N       0.16557   0.07938   0.24623  -0.30602
N          N       0.92224   0.08939   0.23308  -0.30507
N          N       0.90979   0.83416   0.26121  -0.29692
N          N       0.83228   0.91954   0.23962  -0.30492
N          N       0.07862   0.91323   0.25480  -0.30575
N          N       0.08761   0.16688   0.23195  -0.30714
N          N       0.54206   0.90295   0.35612  -0.27892
N          N       0.09841   0.64021   0.33418  -0.27365
N          N       0.35924   0.45615   0.34938  -0.27758
N          N       0.45549   0.09688   0.33542  -0.28008
N          N       0.90090   0.35984   0.34238  -0.27534
N          N       0.63943   0.54197   0.33458  -0.27809
N          N       0.64030   0.09390   0.26383  -0.29337
N          N       0.90484   0.54548   0.24819  -0.29524
N          N       0.45471   0.35973   0.25905  -0.29340
N          N       0.35928   0.90678   0.25804  -0.29216
N          N       0.09260   0.45335   0.24997  -0.29355
N          N       0.54585   0.64043   0.25363  -0.29408
N          N       0.16700   0.07800   0.74698  -0.30598
N          N       0.92318   0.08907   0.74037  -0.30689
N          N       0.91336   0.83395   0.76187  -0.30464
N          N       0.83470   0.92308   0.74822  -0.30246
N          N       0.07776   0.91138   0.74806  -0.30542
N          N       0.08882   0.16695   0.74356  -0.30591
N          N       0.54447   0.90308   0.85631  -0.27998
N          N       0.09806   0.64092   0.85459  -0.27708
N          N       0.36043   0.45805   0.86071  -0.27520
N          N       0.45794   0.09681   0.86251  -0.27689
N          N       0.90256   0.36032   0.83469  -0.27939
N          N       0.64014   0.54142   0.83911  -0.28038
N          N       0.64104   0.09453   0.76292  -0.29459
N          N       0.90595   0.54591   0.74626  -0.29456
N          N       0.45437   0.35894   0.75837  -0.29317
N          N       0.36033   0.90565   0.75786  -0.29460
N          N       0.09332   0.45300   0.74773  -0.29336
N          N       0.54685   0.63995   0.74954  -0.29332

