data_crystal

_audit_creation_method 'AiiDA-DDEC plugin'

_cell_length_a        49.40250
_cell_length_b        49.49838
_cell_length_c         9.13589

_cell_angle_alpha     98.14916
_cell_angle_beta     96.61370
_cell_angle_gamma     55.11162

_symmetry_space_group_name_Hall 'P 1'
_symmetry_space_group_name_H-M  'P 1'

loop_
_symmetry_equiv_pos_as_xyz
 'x,y,z'

loop_
_atom_site_label
_atom_site_type_symbol
_atom_site_fract_x
_atom_site_fract_y
_atom_site_fract_z
_atom_site_charge
H          H       0.90068   0.30824   0.24666   0.10562
H          H       0.09559   0.67466   0.30662   0.10890
H          H       0.82093   0.29702   0.26227   0.10776
H          H       0.17651   0.68403   0.29076   0.10539
H          H       0.80009   0.39198   0.20542   0.10740
H          H       0.19469   0.58769   0.26052   0.10669
H          H       0.90301   0.35442   0.36150   0.11074
H          H       0.09425   0.63573   0.43399   0.10846
H          H       0.91446   0.39676   0.34545   0.10897
H          H       0.07828   0.59594   0.41881   0.10886
H          H       0.83404   0.44304   0.02356   0.11248
H          H       0.15170   0.53231   0.09708   0.11100
H          H       0.82237   0.40125   0.04063   0.10623
H          H       0.16811   0.57127   0.11390   0.11247
H          H       0.91975   0.26567   0.43147   0.10798
H          H       0.07730   0.72842   0.46141   0.10515
H          H       0.95636   0.20545   0.45529   0.10910
H          H       0.04303   0.78931   0.46217   0.10633
H          H       0.89755   0.18917   0.11911   0.11157
H          H       0.10412   0.78247   0.14056   0.11318
H          H       0.86051   0.24978   0.09515   0.10947
H          H       0.13850   0.72132   0.13771   0.10689
H          H       0.77057   0.32047   0.13054   0.10809
H          H       0.21695   0.65693   0.12833   0.11013
H          H       0.70964   0.34986   0.11947   0.10372
H          H       0.27602   0.63030   0.08600   0.10763
H          H       0.69920   0.43896   0.32269   0.11921
H          H       0.30186   0.54746   0.31083   0.11896
H          H       0.76023   0.40903   0.34497   0.11032
H          H       0.24284   0.57505   0.36327   0.10988
H          H       0.87397   0.45961   0.07289   0.08034
H          H       0.11140   0.52154   0.14043   0.07150
H          H       0.96905   0.14899   0.39679   0.07572
H          H       0.03543   0.84093   0.39601   0.07691
H          H       0.65601   0.39692   0.17888   0.06054
H          H       0.33411   0.58844   0.14675   0.06796
H          H       0.45567   0.47673   0.00266   0.10684
H          H       0.53574   0.50766   0.04433   0.10174
H          H       0.39849   0.49168  -0.00322   0.12441
H          H       0.59332   0.49223   0.06149   0.12462
H          H       0.37649   0.56502   0.36343   0.10174
H          H       0.61867   0.42524   0.38523   0.10867
H          H       0.43346   0.54991   0.37141   0.10254
H          H       0.56125   0.44093   0.36739   0.09768
H          H       0.43306   0.55988   0.04844   0.10317
H          H       0.55601   0.42352   0.04407   0.10833
H          H       0.41698   0.61752   0.07084   0.11604
H          H       0.57229   0.36677   0.05854   0.11132
H          H       0.51730   0.53317   0.34298   0.10432
H          H       0.47906   0.46075   0.34687   0.10706
H          H       0.50059   0.59092   0.37002   0.11869
H          H       0.49696   0.40348   0.37077   0.11979
H          H       0.02224   0.03330   0.37805   0.10475
H          H       0.99188   0.95087   0.38028   0.10822
H          H       0.00202   0.09130   0.38085   0.12307
H          H       0.00566   0.89486   0.36975   0.12194
H          H       0.92176   0.10704   0.07906   0.11209
H          H       0.07943   0.86146   0.05348   0.11725
H          H       0.94174   0.04853   0.07872   0.10174
H          H       0.06453   0.91860   0.05958   0.10902
H          H       0.32090   0.80990   0.20329   0.10867
H          H       0.69036   0.17911   0.15839   0.10518
H          H       0.31829   0.89696   0.16883   0.10746
H          H       0.69349   0.08948   0.11963   0.10940
H          H       0.40982   0.80066   0.12329   0.10426
H          H       0.60084   0.18321   0.07944   0.10682
H          H       0.35648   0.76512   0.31977   0.11117
H          H       0.64671   0.23185   0.30797   0.11171
H          H       0.38838   0.70406   0.31567   0.11575
H          H       0.60731   0.29310   0.31327   0.11497
H          H       0.44664   0.71244   0.50634   0.11466
H          H       0.54512   0.29805   0.44814   0.11636
H          H       0.42290   0.75453   0.01390   0.11456
H          H       0.59218   0.22052   0.93014   0.10314
H          H       0.28737   0.84657   0.39165   0.10336
H          H       0.73199   0.15001   0.32020   0.10991
H          H       0.22832   0.87711   0.44270   0.09973
H          H       0.79266   0.11964   0.35180   0.10855
H          H       0.20373   0.94061   0.10288   0.11324
H          H       0.80406   0.03890   0.05206   0.11420
H          H       0.26319   0.91043   0.05372   0.10642
H          H       0.74305   0.06995   0.01439   0.10702
H          H       0.34270   0.91096   0.04598   0.10814
H          H       0.65590   0.07776   0.93680   0.11042
H          H       0.37354   0.93570   0.03002   0.10784
H          H       0.62099   0.05622   0.93316   0.10461
H          H       0.46318   0.84778   0.17160   0.11849
H          H       0.55489   0.13903   0.23170   0.12040
H          H       0.43206   0.82397   0.20135   0.11134
H          H       0.59103   0.15946   0.24404   0.11227
H          H       0.45085   0.64659   0.03816   0.07187
H          H       0.54591   0.33618   0.01063   0.07612
H          H       0.17364   0.91910   0.40846   0.06051
H          H       0.84476   0.07776   0.28879   0.06228
H          H       0.42245   0.93613   0.09302   0.06591
H          H       0.57998   0.05568   0.05333   0.06424
H          H       0.48589   0.04499   0.97621   0.09933
H          H       0.52583   0.93268   0.93765   0.10602
H          H       0.49097   0.09165   0.96293   0.12554
H          H       0.51051   0.89268   0.91098   0.12523
H          H       0.55673   0.06288   0.34773   0.10373
H          H       0.46044   0.93552   0.32058   0.10813
H          H       0.54979   0.01811   0.36830   0.10495
H          H       0.47581   0.97540   0.34786   0.10374
H          H       0.56878   0.99863   0.05251   0.10542
H          H       0.45216   0.98753   0.98773   0.10240
H          H       0.62897   0.95924   0.05153   0.11291
H          H       0.39188   0.02546   0.99604   0.11042
H          H       0.56057   0.92896   0.24297   0.11256
H          H       0.46327   0.05441   0.30141   0.10392
H          H       0.62112   0.88897   0.23678   0.11805
H          H       0.40249   0.09203   0.31404   0.11985
H          H       0.07912   0.92648   0.37073   0.10862
H          H       0.94433   0.03760   0.42298   0.09833
H          H       0.13434   0.91386   0.37087   0.10947
H          H       0.88800   0.05162   0.40883   0.11127
H          H       0.09691   0.99728   0.12334   0.12150
H          H       0.91084   0.98362   0.01729   0.11824
H          H       0.04138   0.00925   0.11862   0.10892
H          H       0.96858   0.96684   0.04440   0.11063
H          H       0.81858   0.89019   0.18910   0.10984
H          H       0.20882   0.08613   0.20475   0.11277
H          H       0.91208   0.79719   0.24423   0.10965
H          H       0.11319   0.17702   0.27931   0.10960
H          H       0.82580   0.79913   0.08354   0.11064
H          H       0.19152   0.17890   0.13377   0.10895
H          H       0.76742   0.89588   0.30299   0.10994
H          H       0.26057   0.08306   0.30790   0.10600
H          H       0.70855   0.91427   0.27040   0.11317
H          H       0.31794   0.06541   0.27325   0.11184
H          H       0.69824   0.86024   0.39341   0.11317
H          H       0.25724   0.16033   0.42715   0.11815
H          H       0.75726   0.83976   0.40504   0.11259
H          H       0.19985   0.17703   0.44134   0.09910
H          H       0.84011   0.90338   0.38984   0.11189
H          H       0.19069   0.07427   0.39265   0.10797
H          H       0.86484   0.93481   0.47888   0.11209
H          H       0.16659   0.04662   0.47350   0.10838
H          H       0.95381   0.86009   0.25742   0.12081
H          H       0.07311   0.11616   0.26567   0.12066
H          H       0.92852   0.82903   0.16127   0.11377
H          H       0.09735   0.14352   0.18042   0.11205
H          H       0.93376   0.74130   0.07917   0.10965
H          H       0.08455   0.22395   0.12082   0.11033
H          H       0.95640   0.68159   0.07533   0.10729
H          H       0.05154   0.28540   0.14082   0.10662
H          H       0.86727   0.70640   0.25460   0.11892
H          H       0.13563   0.28359   0.34007   0.12136
H          H       0.84489   0.76617   0.26275   0.10812
H          H       0.16899   0.22206   0.31885   0.10652
H          H       0.66937   0.89968   0.93555   0.07129
H          H       0.34415   0.08325   0.95877   0.07314
H          H       0.90956   0.94083   0.50170   0.04480
H          H       0.12179   0.04219   0.49239   0.04157
H          H       0.95325   0.63823   0.14012   0.06387
H          H       0.04602   0.33631   0.20832   0.06266
H          H       0.06010   0.44215   0.21412   0.10638
H          H       0.93057   0.53978   0.12687   0.10392
H          H       0.09852   0.38217   0.22885   0.12352
H          H       0.89472   0.59971   0.09496   0.12616
H          H       0.02137   0.37923   0.38315   0.10407
H          H       0.96505   0.61327   0.35412   0.10644
H          H       0.98286   0.43854   0.36562   0.10387
H          H       0.00095   0.55413   0.38216   0.10532
H          H       0.96777   0.45954   0.03688   0.11113
H          H       0.01959   0.51793   0.04717   0.09919
H          H       0.92557   0.44832   0.04148   0.09561
H          H       0.05824   0.53485   0.08766   0.11108
H          H       0.94006   0.51394   0.46635   0.11078
H          H       0.04425   0.48565   0.48345   0.09903
H          H       0.89893   0.50134   0.47454   0.11758
H          H       0.08567   0.49953   0.51991   0.11364
H          H       0.90978   0.32669   0.80053   0.11136
H          H       0.10692   0.69345   0.76432   0.10934
H          H       0.82706   0.31886   0.77689   0.11105
H          H       0.18586   0.70411   0.70953   0.10955
H          H       0.81194   0.41011   0.69738   0.10501
H          H       0.20562   0.60756   0.70298   0.10810
H          H       0.91111   0.37372   0.91098   0.10955
H          H       0.11508   0.64876   0.93001   0.11206
H          H       0.92933   0.41002   0.87759   0.11245
H          H       0.10238   0.60660   0.92671   0.11588
H          H       0.85834   0.45058   0.51482   0.11482
H          H       0.16167   0.55283   0.54701   0.11197
H          H       0.84028   0.41439   0.54622   0.11106
H          H       0.17541   0.59372   0.55384   0.10451
H          H       0.92200   0.28546  -0.00229   0.10310
H          H       0.08683   0.74328   0.89375   0.10683
H          H       0.95472   0.22527   0.02729   0.10484
H          H       0.04911   0.80408   0.90844   0.10927
H          H       0.90223   0.21114   0.65005   0.11010
H          H       0.10812   0.80730   0.60995   0.11296
H          H       0.86832   0.27163   0.62367   0.10680
H          H       0.14603   0.74616   0.59273   0.10841
H          H       0.78355   0.33788   0.60797   0.10897
H          H       0.23016   0.67007   0.53217   0.11190
H          H       0.72313   0.36460   0.57398   0.10550
H          H       0.29028   0.63912   0.49546   0.10778
H          H       0.70557   0.45722   0.77012   0.11709
H          H       0.30943   0.56740   0.78055   0.11710
H          H       0.76620   0.43027   0.81006   0.10734
H          H       0.24947   0.59920   0.82410   0.11189
H          H       0.90564   0.45776   0.55756   0.06925
H          H       0.11756   0.54589   0.60532   0.07140
H          H       0.96289   0.16952   0.95864   0.07492
H          H       0.03354   0.85770   0.84868   0.07596
H          H       0.66790   0.40996   0.62633   0.05994
H          H       0.34702   0.59811   0.57874   0.06248
H          H       0.47083   0.48181   0.56380   0.10226
H          H       0.54146   0.52370   0.56598   0.10482
H          H       0.41354   0.49688   0.54578   0.12588
H          H       0.59813   0.50925   0.55289   0.12554
H          H       0.38194   0.58875   0.80652   0.11156
H          H       0.63450   0.43217   0.83833   0.11108
H          H       0.43902   0.57357   0.82635   0.10339
H          H       0.57815   0.44645   0.85088   0.10553
H          H       0.45905   0.56479   0.51251   0.10231
H          H       0.56397   0.43291   0.55469   0.10459
H          H       0.43992   0.62331   0.53765   0.11624
H          H       0.57209   0.37895   0.55641   0.11646
H          H       0.51879   0.54881   0.91415   0.11096
H          H       0.48960   0.47632   0.87521   0.09980
H          H       0.49974   0.60754   0.94045   0.11872
H          H       0.49890   0.42170   0.88485   0.11863
H          H       0.00433   0.05798   0.93987   0.11081
H          H       0.98333   0.97240   0.88332   0.09918
H          H       0.99284   0.11338   0.94229   0.12171
H          H       0.00554   0.91312   0.87349   0.11861
H          H       0.92939   0.13068   0.55125   0.11541
H          H       0.07257   0.89170   0.54383   0.11626
H          H       0.94111   0.07488   0.54822   0.10401
H          H       0.04970   0.95151   0.55509   0.09814
H          H       0.30838   0.81958   0.70246   0.10838
H          H       0.67840   0.19646   0.70397   0.11194
H          H       0.30353   0.90890   0.68085   0.10947
H          H       0.68010   0.10847   0.69882   0.10898
H          H       0.39639   0.81479   0.65467   0.10995
H          H       0.58848   0.20120   0.61814   0.10566
H          H       0.35021   0.77069   0.82726   0.11328
H          H       0.63705   0.24954   0.82858   0.11103
H          H       0.39037   0.70963   0.82229   0.11360
H          H       0.60052   0.31061   0.81688   0.11352
H          H       0.45374   0.69385   0.00697   0.11505
H          H       0.55405   0.28136   0.93146   0.11745
H          H       0.40730   0.77292   0.51229   0.11284
H          H       0.58081   0.23735   0.46105   0.11396
H          H       0.26522   0.84938   0.81242   0.11292
H          H       0.71716   0.16275   0.92449   0.10749
H          H       0.20485   0.88047   0.81910   0.11091
H          H       0.77780   0.13069   0.97344   0.10309
H          H       0.19430   0.96240   0.64513   0.11300
H          H       0.79179   0.06321   0.59053   0.11390
H          H       0.25476   0.93028   0.62516   0.10683
H          H       0.73071   0.09433   0.54585   0.11200
H          H       0.33508   0.90851   0.47215   0.11071
H          H       0.64923   0.09187   0.52899   0.11109
H          H       0.36770   0.93037   0.42655   0.10227
H          H       0.61590   0.06854   0.51245   0.10554
H          H       0.44211   0.87058   0.74962   0.11919
H          H       0.53760   0.15800   0.73852   0.12205
H          H       0.40926   0.84910   0.79718   0.10921
H          H       0.57152   0.18093   0.76116   0.10800
H          H       0.45774   0.65920   0.55550   0.07374
H          H       0.54047   0.35240   0.51389   0.07297
H          H       0.15284   0.92323   0.75932   0.06637
H          H       0.83139   0.08900   0.91320   0.06537
H          H       0.40867   0.94045   0.51163   0.06193
H          H       0.57192   0.06922   0.58174   0.05641
H          H       0.45412   0.07795   0.55177   0.10714
H          H       0.51479   0.94728   0.57013   0.10508
H          H       0.46845   0.11801   0.54005   0.12555
H          H       0.50692   0.90248   0.56011   0.12586
H          H       0.55954   0.05675   0.78488   0.10053
H          H       0.41180   0.97056   0.74697   0.11033
H          H       0.54599   0.01669   0.79399   0.10399
H          H       0.41941   0.01547   0.75796   0.10267
H          H       0.53664   0.99200   0.44830   0.09822
H          H       0.42561   0.02881   0.44438   0.10848
H          H       0.59758   0.95365   0.46077   0.11123
H          H       0.36508   0.06653   0.44896   0.10322
H          H       0.53170   0.96680   0.86892   0.10069
H          H       0.43449   0.06902   0.88273   0.11197
H          H       0.59258   0.92574   0.87748   0.11317
H          H       0.37358   0.10566   0.89145   0.11985
H          H       0.05992   0.96312   0.90428   0.10607
H          H       0.92150   0.08391   0.85112   0.10551
H          H       0.11557   0.95051   0.90486   0.11132
H          H       0.86576   0.09704   0.84438   0.10875
H          H       0.08317   0.01767   0.57094   0.11983
H          H       0.90001   0.00111   0.61851   0.11447
H          H       0.02597   0.03369   0.58808   0.10592
H          H       0.95599   0.98821   0.62138   0.11150
H          H       0.78932   0.90064   0.68730   0.11157
H          H       0.18057   0.11065   0.64354   0.10292
H          H       0.88431   0.80799   0.69959   0.11130
H          H       0.08594   0.20178   0.73137   0.11319
H          H       0.79791   0.80929   0.55224   0.10558
H          H       0.16571   0.20404   0.60933   0.10690
H          H       0.74009   0.91195   0.77234   0.10835
H          H       0.23332   0.09934   0.71931   0.11076
H          H       0.68080   0.93206   0.76151   0.11003
H          H       0.29089   0.08307   0.70754   0.11108
H          H       0.73012   0.85233   0.85987   0.11480
H          H       0.28326   0.12705   0.91590   0.11229
H          H       0.78901   0.83293   0.89554   0.10722
H          H       0.22593   0.14520   0.95075   0.10952
H          H       0.81883   0.90451   0.92154   0.11137
H          H       0.16511   0.10277   0.85724   0.10913
H          H       0.84797   0.93067   0.03414   0.10650
H          H       0.14435   0.07338   0.95195   0.10732
H          H       0.92373   0.87190   0.71714   0.11775
H          H       0.05036   0.13487   0.72777   0.12283
H          H       0.89479   0.84533   0.60564   0.10969
H          H       0.07150   0.16344   0.62450   0.11165
H          H       0.90807   0.75906   0.55081   0.10741
H          H       0.06211   0.25820   0.55883   0.10969
H          H       0.94002   0.69814   0.55588   0.10685
H          H       0.04191   0.31761   0.58256   0.10506
H          H       0.85305   0.70644   0.66386   0.11964
H          H       0.12745   0.29609   0.85707   0.11933
H          H       0.82130   0.76755   0.66822   0.10860
H          H       0.14689   0.23685   0.84077   0.11256
H          H       0.64210   0.90135   0.47312   0.07287
H          H       0.31801   0.11842   0.47625   0.07951
H          H       0.89331   0.93621   0.04800   0.04100
H          H       0.10183   0.06585   0.97913   0.04332
H          H       0.94516   0.65076   0.62850   0.06189
H          H       0.04793   0.36332   0.69699   0.06972
H          H       0.07221   0.44723   0.58738   0.10587
H          H       0.96506   0.53450   0.54383   0.09680
H          H       0.10467   0.38638   0.57713   0.12366
H          H       0.91666   0.59094   0.49481   0.12276
H          H       0.05828   0.39359   0.96472   0.11304
H          H       0.94420   0.63113   0.88425   0.10070
H          H       0.02561   0.45460   0.97510   0.10203
H          H       0.99097   0.57432   0.94006   0.10876
H          H       0.01100   0.44358   0.60583   0.10059
H          H       0.01404   0.56505   0.64470   0.10699
H          H       0.96875   0.43202   0.60812   0.11006
H          H       0.05588   0.57754   0.67330   0.11391
H          H       0.95342   0.53283   0.89156   0.10318
H          H       0.07925   0.47819   0.87686   0.11103
H          H       0.91178   0.52028   0.89993   0.12031
H          H       0.12134   0.49071   0.90404   0.11741
C          C       0.88109   0.44844   0.17849   0.07206
C          C       0.10510   0.53752   0.24516   0.07472
C          C       0.94977   0.15735   0.30733   0.06424
C          C       0.05262   0.82648   0.30588   0.06931
C          C       0.85156   0.35276   0.22446   0.07318
C          C       0.14389   0.62860   0.28632   0.07133
C          C       0.87431   0.31904   0.24484  -0.18277
C          C       0.12197   0.66331   0.30155  -0.18542
C          C       0.86347   0.29851   0.25346   0.07863
C          C       0.13342   0.68357   0.29973   0.07723
C          C       0.82928   0.31266   0.24972  -0.18874
C          C       0.16745   0.66843   0.28695  -0.18285
C          C       0.80606   0.34659   0.23610   0.07494
C          C       0.18992   0.63392   0.27223   0.07471
C          C       0.81777   0.36593   0.22085  -0.18275
C          C       0.17766   0.61447   0.27315  -0.18840
C          C       0.76996   0.36281   0.23496   0.07323
C          C       0.22535   0.61808   0.24915   0.07209
C          C       0.88707   0.26235   0.26339   0.06443
C          C       0.11090   0.72011   0.30101   0.06168
C          C       0.86115   0.37540   0.20603   0.07073
C          C       0.13271   0.60627   0.27662   0.06630
C          C       0.88794   0.37378   0.28729  -0.14126
C          C       0.10672   0.61317   0.35944  -0.13364
C          C       0.89424   0.39760   0.27960  -0.11081
C          C       0.09800   0.59077   0.35289  -0.11708
C          C       0.87431   0.42357   0.18827   0.04512
C          C       0.11458   0.56090   0.26074   0.04688
C          C       0.84873   0.42406   0.09997  -0.12263
C          C       0.13975   0.55447   0.17411  -0.12138
C          C       0.84208   0.40066   0.11020  -0.13590
C          C       0.14890   0.57651   0.18343  -0.13382
C          C       0.91504   0.24901   0.36091  -0.13924
C          C       0.08303   0.73995   0.38854  -0.13786
C          C       0.93568   0.21497   0.37432  -0.12922
C          C       0.06369   0.77441   0.38919  -0.12739
C          C       0.92940   0.19297   0.28865   0.05032
C          C       0.07117   0.79027   0.30075   0.05258
C          C       0.90199   0.20630   0.18697  -0.10965
C          C       0.09853   0.77030   0.21006  -0.10926
C          C       0.88129   0.24012   0.17536  -0.13653
C          C       0.11783   0.73616   0.21054  -0.14537
C          C       0.75515   0.34623   0.17493  -0.13999
C          C       0.23545   0.63336   0.17195  -0.13899
C          C       0.72091   0.36283   0.16725  -0.13192
C          C       0.26868   0.61817   0.14637  -0.12793
C          C       0.70037   0.39665   0.21636   0.04898
C          C       0.29285   0.58671   0.19339   0.04857
C          C       0.71508   0.41314   0.27991  -0.09833
C          C       0.28293   0.57132   0.27074  -0.10129
C          C       0.74920   0.39633   0.29038  -0.13195
C          C       0.24985   0.58687   0.29898  -0.13260
C          C       0.66465   0.41331   0.20317   0.06426
C          C       0.32765   0.57148   0.16820   0.06884
C          C       0.44905   0.51273   0.18557   0.05737
C          C       0.54409   0.47512   0.20423   0.05709
C          C       0.48136   0.50898   0.18894  -0.02703
C          C       0.51156   0.47927   0.19378  -0.02836
C          C       0.47640   0.54175   0.19360   0.04872
C          C       0.51637   0.44669   0.19506   0.05562
C          C       0.43861   0.49606   0.08274  -0.12164
C          C       0.55361   0.48998   0.12092  -0.12157
C          C       0.40636   0.50430   0.07900  -0.16881
C          C       0.58599   0.48148   0.13064  -0.16438
C          C       0.38308   0.53039   0.17570   0.20445
C          C       0.61038   0.45655   0.21907   0.20325
C          C       0.39372   0.54619   0.28259  -0.18558
C          C       0.60066   0.44289   0.30882  -0.18521
C          C       0.42596   0.53728   0.28748  -0.11663
C          C       0.56829   0.45227   0.30099  -0.12206
C          C       0.45764   0.60834   0.22231   0.20379
C          C       0.53600   0.38097   0.21628   0.19904
C          C       0.44839   0.56639   0.11638  -0.11973
C          C       0.54254   0.41936   0.11351  -0.10707
C          C       0.43927   0.59883   0.12837  -0.18749
C          C       0.55190   0.38738   0.12183  -0.18525
C          C       0.49563   0.55122   0.28048  -0.11406
C          C       0.49951   0.44023   0.28352  -0.11970
C          C       0.48634   0.58386   0.29586  -0.17592
C          C       0.50945   0.40794   0.29662  -0.18018
C          C       0.02755   0.93941   0.22356   0.05771
C          C       0.98336   0.03584   0.23227   0.06636
C          C      -0.00015   0.04925   0.31362  -0.12375
C          C       0.01079   0.93168   0.30623  -0.10638
C          C       0.98833   0.08245   0.31459  -0.15689
C          C       0.01901   0.89952   0.30189  -0.16569
C          C       0.95927   0.10417   0.23209   0.20089
C          C       0.04489   0.87340   0.21488   0.19710
C          C       0.94357   0.09054   0.14581  -0.15468
C          C       0.06021   0.88136   0.12438  -0.16996
C          C       0.95500   0.05764   0.14633  -0.12966
C          C       0.05178   0.91345   0.12872  -0.12587
C          C       0.44121   0.65876   0.14787   0.07822
C          C       0.55581   0.32731   0.12089   0.07334
C          C       0.17699   0.92654   0.30767   0.07379
C          C       0.83824   0.06151   0.22495   0.06401
C          C       0.36784   0.80099   0.16574   0.07215
C          C       0.64330   0.18542   0.11798   0.07811
C          C       0.33379   0.82118   0.18868  -0.18298
C          C       0.67775   0.16664   0.14158  -0.18686
C          C       0.31556   0.85578   0.18800   0.07663
C          C       0.69639   0.13185   0.13847   0.07420
C          C       0.33213   0.87015   0.16396  -0.18385
C          C       0.67967   0.11610   0.11482  -0.18749
C          C       0.36637   0.85065   0.14209   0.07178
C          C       0.64513   0.13460   0.09664   0.07583
C          C       0.38350   0.81620   0.14166  -0.18140
C          C       0.62757   0.16891   0.09512  -0.18323
C          C       0.38473   0.86543   0.12515   0.07039
C          C       0.62563   0.12034   0.08924   0.07171
C          C       0.27983   0.87584   0.21793   0.06334
C          C       0.73277   0.11251   0.16349   0.06598
C          C       0.38708   0.76458   0.16649   0.06119
C          C       0.62210   0.22185   0.11875   0.06718
C          C       0.37763   0.74963   0.25012  -0.13828
C          C       0.62651   0.24267   0.22517  -0.14289
C          C       0.39564   0.71538   0.24950  -0.11721
C          C       0.60435   0.27692   0.22952  -0.11019
C          C       0.42341   0.69488   0.16242   0.05175
C          C       0.57768   0.29137   0.12513   0.04749
C          C       0.43302   0.70959   0.07883  -0.12664
C          C       0.57382   0.27057   0.01621  -0.12163
C          C       0.41549   0.74380   0.08276  -0.13475
C          C       0.59526   0.23642   0.01522  -0.13802
C          C       0.26912   0.86685   0.32670  -0.13946
C          C       0.74753   0.12598   0.25891  -0.13783
C          C       0.23584   0.88426   0.35618  -0.12104
C          C       0.78171   0.10873   0.27786  -0.12798
C          C       0.21160   0.91109   0.27611   0.05072
C          C       0.80270   0.07707   0.20418   0.05228
C          C       0.22219   0.92030   0.16731  -0.11135
C          C       0.78805   0.06310   0.11128  -0.10790
C          C       0.25569   0.90327   0.14026  -0.14108
C          C       0.75384   0.08056   0.09140  -0.13453
C          C       0.36891   0.89718   0.07728  -0.13862
C          C       0.63408   0.09095   0.00277  -0.14013
C          C       0.38642   0.91102   0.06658  -0.12852
C          C       0.61426   0.07915  -0.00047  -0.13040
C          C       0.42070   0.89332   0.09841   0.05080
C          C       0.58529   0.09671   0.07978   0.05036
C          C       0.43679   0.86138   0.14405  -0.10356
C          C       0.57674   0.12617   0.16617  -0.10202
C          C       0.41908   0.84805   0.15888  -0.13210
C          C       0.59685   0.13751   0.17159  -0.13583
C          C       0.43820   0.90899   0.09192   0.07213
C          C       0.56637   0.08255   0.08390   0.07165
C          C       0.51789   0.02756   0.17051   0.04870
C          C       0.50118   0.95796   0.14343   0.05191
C          C       0.52361   0.99427   0.15903  -0.03026
C          C       0.49848   0.98989   0.14941  -0.02404
C          C       0.55950   0.96757   0.15189   0.05342
C          C       0.46270   0.01751   0.14543   0.05857
C          C       0.50019   0.04980   0.06204  -0.12060
C          C       0.51210   0.93320   0.02412  -0.12465
C          C       0.50327   0.07591   0.05320  -0.16688
C          C       0.50341   0.91047   0.00806  -0.16848
C          C       0.52591   0.07884   0.14945   0.20551
C          C       0.48269   0.91259   0.10927   0.20362
C          C       0.54067   0.05918   0.26881  -0.18876
C          C       0.47460   0.93508   0.23647  -0.18364
C          C       0.53634   0.03425   0.28002  -0.12581
C          C       0.48392   0.95701   0.25272  -0.12089
C          C       0.62942   0.92158   0.14662   0.20275
C          C       0.39279   0.06144   0.15637   0.20164
C          C       0.57992   0.97492   0.09567  -0.11213
C          C       0.44151   0.01074   0.05700  -0.12208
C          C       0.61385   0.95274   0.09323  -0.18278
C          C       0.40750   0.03216   0.06046  -0.18295
C          C       0.57523   0.93571   0.19898  -0.11083
C          C       0.44784   0.04815   0.23211  -0.12485
C          C       0.60952   0.91319   0.19734  -0.19167
C          C       0.41354   0.06954   0.23895  -0.16505
C          C       0.96040   0.00311   0.22805   0.07047
C          C       0.05493   0.96927   0.24604   0.05878
C          C       0.08241   0.94285   0.31934  -0.12161
C          C       0.93693   0.02597   0.33283  -0.12233
C          C       0.11401   0.93572   0.32049  -0.17395
C          C       0.90479   0.03446   0.32279  -0.17272
C          C       0.12021   0.95497   0.24847   0.19933
C          C       0.89407   0.02106   0.20234   0.19608
C          C       0.09278   0.98233   0.18168  -0.15175
C          C       0.91816   0.99557   0.10640  -0.15270
C          C       0.06120   0.98908   0.17949  -0.11689
C          C       0.95073   0.98658   0.12025  -0.12447
C          C       0.68083   0.89547   0.04822   0.08070
C          C       0.33794   0.08536   0.07351   0.07125
C          C       0.92615   0.91709   0.43490   0.25656
C          C       0.10407   0.06386   0.42919   0.25224
C          C       0.81799   0.84670   0.13291   0.07827
C          C       0.20416   0.13059   0.16456   0.07791
C          C       0.83312   0.86332   0.18197  -0.18922
C          C       0.19225   0.11289   0.20451  -0.19056
C          C       0.86728   0.84563   0.21711   0.06739
C          C       0.15899   0.12924   0.24025   0.07060
C          C       0.88611   0.81081   0.20819  -0.18734
C          C       0.13813   0.16389   0.24096  -0.17733
C          C       0.87108   0.79382   0.16352   0.07621
C          C       0.14966   0.18210   0.20445   0.07320
C          C       0.83746   0.81215   0.12111  -0.17593
C          C       0.18235   0.16500   0.16271  -0.18073
C          C       0.88731   0.75793   0.16720   0.06733
C          C       0.12915   0.21861   0.21746   0.07040
C          C       0.88244   0.86401   0.26889   0.07860
C          C       0.14566   0.11129   0.28271   0.07884
C          C       0.78220   0.86273   0.10230   0.06681
C          C       0.23898   0.11579   0.13301   0.06057
C          C       0.75914   0.88666   0.20536  -0.14612
C          C       0.26547   0.09236   0.22052  -0.13373
C          C       0.72634   0.89670   0.18837  -0.10882
C          C       0.29756   0.08278   0.20286  -0.12583
C          C       0.71566   0.88388   0.06573   0.04959
C          C       0.30423   0.09566   0.09492   0.05319
C          C       0.73832   0.86151   0.95791  -0.11634
C          C       0.27810   0.11774   0.00234  -0.12119
C          C       0.77128   0.85068   0.97752  -0.14277
C          C       0.24598   0.12788   0.02246  -0.13799
C          C       0.86466   0.89425   0.35732  -0.14029
C          C       0.16508   0.08331   0.36290  -0.13814
C          C       0.87866   0.91169   0.40868  -0.10874
C          C       0.15154   0.06793   0.40931  -0.11071
C          C       0.91102   0.89919   0.37399  -0.00615
C          C       0.11822   0.07997   0.37613  -0.00057
C          C       0.92890   0.86915   0.28467  -0.08892
C          C       0.09876   0.10745   0.29318  -0.09135
C          C       0.91478   0.85191   0.23264  -0.13802
C          C       0.11235   0.12269   0.24701  -0.13883
C          C       0.91925   0.73376   0.11850  -0.14007
C          C       0.09570   0.23693   0.16995  -0.13785
C          C       0.93182   0.70028   0.11564  -0.13045
C          C       0.07729   0.27136   0.18053  -0.12718
C          C       0.91286   0.69020   0.16140   0.05253
C          C       0.09166   0.28841   0.24030   0.05346
C          C       0.88125   0.71440   0.21430  -0.09947
C          C       0.12495   0.27016   0.29094  -0.09760
C          C       0.86891   0.74757   0.21745  -0.13199
C          C       0.14331   0.23590   0.27857  -0.13841
C          C       0.92676   0.65518   0.16149   0.06192
C          C       0.07205   0.32435   0.24693   0.06234
C          C       0.01740   0.44576   0.28252   0.06113
C          C       0.96995   0.54140   0.24846   0.05907
C          C       0.99113   0.48126   0.26495  -0.02647
C          C       0.99612   0.50554   0.25773  -0.02057
C          C       0.95779   0.48687   0.25262   0.05836
C          C       0.02898   0.50078   0.26344   0.05776
C          C       0.05105   0.42887   0.25076  -0.11657
C          C       0.93860   0.55559   0.17494  -0.12023
C          C       0.07304   0.39491   0.25970  -0.16271
C          C       0.91817   0.58944   0.15754  -0.16556
C          C       0.06242   0.37595   0.29840   0.20380
C          C       0.92854   0.61036   0.21240   0.20794
C          C       0.02967   0.39282   0.34198  -0.18971
C          C       0.95827   0.59691   0.29833  -0.19033
C          C       0.00797   0.42654   0.33267  -0.11522
C          C       0.97822   0.56353   0.31510  -0.10937
C          C       0.91058   0.47211   0.26247   0.19482
C          C       0.07419   0.51913   0.30823   0.19959
C          C       0.95185   0.46987   0.13042  -0.12136
C          C       0.03482   0.51287   0.14891  -0.12388
C          C       0.92833   0.46304   0.13404  -0.17569
C          C       0.05668   0.52231   0.17134  -0.18079
C          C       0.93648   0.50034   0.37070  -0.12305
C          C       0.04901   0.49433   0.39334  -0.13238
C          C       0.91332   0.49287   0.37653  -0.17142
C          C       0.07166   0.50295   0.41545  -0.15701
C          C       0.02282   0.97235   0.23505  -0.02395
C          C       0.99175   0.00157   0.23292  -0.02428
C          C       0.90644   0.45335   0.67307   0.06921
C          C       0.12022   0.55462   0.72040   0.08057
C          C       0.94909   0.17848   0.85336   0.06778
C          C       0.05383   0.84634   0.77242   0.06662
C          C       0.86217   0.37097   0.74917   0.07448
C          C       0.15526   0.64792   0.73799   0.07636
C          C       0.88332   0.33804   0.78485  -0.18863
C          C       0.13294   0.68252   0.75045  -0.18687
C          C       0.87091   0.31877   0.79008   0.07975
C          C       0.14343   0.70322   0.73659   0.07371
C          C       0.83680   0.33338   0.76647  -0.18135
C          C       0.17711   0.68847   0.71383  -0.18699
C          C       0.81514   0.36641   0.73475   0.07253
C          C       0.19984   0.65398   0.70290   0.07256
C          C       0.82834   0.38465   0.72469  -0.19166
C          C       0.18835   0.63430   0.71402  -0.18276
C          C       0.77927   0.38207   0.71206   0.07060
C          C       0.23543   0.63692   0.68069   0.06932
C          C       0.89254   0.28297   0.80965   0.06206
C          C       0.11982   0.73975   0.74367   0.06042
C          C       0.87403   0.39176   0.73212   0.06580
C          C       0.14618   0.62423   0.74175   0.07277
C          C       0.89957   0.39048   0.82417  -0.14026
C          C       0.12541   0.62767   0.84661  -0.14424
C          C       0.90941   0.41115   0.80752  -0.12917
C          C       0.11857   0.60393   0.84630  -0.11369
C          C       0.89443   0.43336   0.69718   0.05310
C          C       0.13160   0.57656   0.73856   0.04634
C          C       0.86938   0.43425   0.60338  -0.12153
C          C       0.15235   0.57316   0.63410  -0.11621
C          C       0.85917   0.41400   0.62183  -0.13472
C          C       0.15998   0.59623   0.63761  -0.13721
C          C       0.91773   0.26924   0.92072  -0.14315
C          C       0.09154   0.75690   0.82891  -0.14014
C          C       0.93622   0.23536   0.93697  -0.13110
C          C       0.07009   0.79135   0.83732  -0.12620
C          C       0.93083   0.21408   0.83896   0.05270
C          C       0.07587   0.81010   0.75962   0.05131
C          C       0.90607   0.22780   0.72575  -0.11017
C          C       0.10388   0.79295   0.67214  -0.10954
C          C       0.88716   0.26151   0.71248  -0.13856
C          C       0.12521   0.75873   0.66461  -0.13564
C          C       0.76659   0.36383   0.64616  -0.13340
C          C       0.24747   0.64804   0.58914  -0.13817
C          C       0.73269   0.37890   0.62603  -0.12471
C          C       0.28120   0.63041   0.56718  -0.12984
C          C       0.71044   0.41275   0.66939   0.05448
C          C       0.30372   0.60096   0.63441   0.05029
C          C       0.72299   0.43120   0.73437  -0.10250
C          C       0.29176   0.58970   0.72575  -0.10747
C          C       0.75681   0.41601   0.75554  -0.13939
C          C       0.25825   0.60753   0.74899  -0.13940
C          C       0.67508   0.42749   0.65427   0.07004
C          C       0.33911   0.58386   0.61964   0.06394
C          C       0.45981   0.52642   0.69660   0.05625
C          C       0.55530   0.48560   0.70630   0.05309
C          C       0.49300   0.52062   0.70625  -0.03198
C          C       0.52280   0.49040   0.70894  -0.02783
C          C       0.48978   0.55256   0.71222   0.06210
C          C       0.52558   0.45894   0.71180   0.05944
C          C       0.45161   0.50509   0.61897  -0.11586
C          C       0.56170   0.50364   0.62613  -0.11705
C          C       0.41941   0.51335   0.60914  -0.16558
C          C       0.59351   0.49573   0.61882  -0.16801
C          C       0.39358   0.54429   0.67141   0.20717
C          C       0.62050   0.46855   0.68816   0.20830
C          C       0.40149   0.56551   0.75179  -0.19409
C          C       0.61421   0.45144   0.77451  -0.19562
C          C       0.43374   0.55664   0.76394  -0.11795
C          C       0.58239   0.45992   0.78308  -0.11609
C          C       0.46781   0.61981   0.74269   0.19310
C          C       0.53596   0.39652   0.72024   0.20438
C          C       0.46844   0.57398   0.60494  -0.11684
C          C       0.54877   0.43086   0.62282  -0.12669
C          C       0.45769   0.60686   0.61846  -0.17626
C          C       0.55362   0.40043   0.62441  -0.18033
C          C       0.50197   0.56487   0.83006  -0.11965
C          C       0.50724   0.45510   0.80356  -0.12385
C          C       0.49100   0.59808   0.84592  -0.18067
C          C       0.51230   0.42453   0.80873  -0.16574
C          C       0.01506   0.96645   0.72190   0.06792
C          C       0.97320   0.06226   0.74513   0.06667
C          C       0.98796   0.07369   0.85393  -0.11273
C          C       0.00268   0.95469   0.80800  -0.13209
C          C       0.98111   0.10530   0.85646  -0.15274
C          C       0.01539   0.92110   0.80200  -0.15688
C          C       0.95891   0.12666   0.74971   0.19555
C          C       0.04168   0.89760   0.70897   0.20233
C          C       0.94576   0.11448   0.63575  -0.15632
C          C       0.05300   0.90964   0.61817  -0.14939
C          C       0.95254   0.08315   0.63466  -0.13441
C          C       0.04002   0.94301   0.62417  -0.12791
C          C       0.44559   0.67119   0.66127   0.07271
C          C       0.55002   0.34414   0.62515   0.06988
C          C       0.15966   0.93966   0.73446   0.05692
C          C       0.82447   0.07939   0.81022   0.07364
C          C       0.35474   0.81293   0.67994   0.07645
C          C       0.63110   0.20307   0.65963   0.07587
C          C       0.32046   0.83210   0.69636  -0.18742
C          C       0.66530   0.18450   0.69208  -0.18639
C          C       0.30136   0.86692   0.69822   0.06838
C          C       0.68326   0.15021   0.70207   0.07891
C          C       0.31746   0.88214   0.67944  -0.18782
C          C       0.66638   0.13470   0.68422  -0.18538
C          C       0.35165   0.86341   0.66298   0.07865
C          C       0.63196   0.15299   0.65688   0.07382
C          C       0.36986   0.82917   0.66627  -0.18071
C          C       0.61500   0.18689   0.64216  -0.19119
C          C       0.36983   0.87767   0.63853   0.07039
C          C       0.61283   0.13820   0.64622   0.06939
C          C       0.26515   0.88689   0.71520   0.06334
C          C       0.71957   0.13091   0.73164   0.06855
C          C       0.37625   0.77643   0.67296   0.06144
C          C       0.61126   0.23908   0.64688   0.06356
C          C       0.37120   0.75797   0.75633  -0.14166
C          C       0.61707   0.26009   0.74473  -0.13422
C          C       0.39380   0.72383   0.75505  -0.10519
C          C       0.59652   0.29419   0.73992  -0.12240
C          C       0.42180   0.70707   0.66826   0.05132
C          C       0.56997   0.30837   0.63496   0.05158
C          C       0.42600   0.72528   0.57941  -0.11922
C          C       0.56482   0.28743   0.53330  -0.12169
C          C       0.40388   0.75935   0.58342  -0.13909
C          C       0.58490   0.25335   0.54078  -0.13847
C          C       0.25008   0.87369   0.77131  -0.13558
C          C       0.73343   0.14112   0.85065  -0.14127
C          C       0.21593   0.89137   0.77672  -0.12863
C          C       0.76748   0.12313   0.87790  -0.12349
C          C       0.19517   0.92357   0.73100   0.05138
C          C       0.78899   0.09497   0.78411   0.04999
C          C       0.21007   0.93763   0.68153  -0.11131
C          C       0.77522   0.08469   0.66440  -0.10816
C          C       0.24418   0.91947   0.67225  -0.13305
C          C       0.74109   0.10214   0.64010  -0.14303
C          C       0.35818   0.90073   0.53432  -0.14197
C          C       0.62510   0.10623   0.57733  -0.13782
C          C       0.37663   0.91258   0.50776  -0.12438
C          C       0.60618   0.09329   0.56665  -0.12851
C          C       0.40703   0.90167   0.58507   0.04563
C          C       0.57427   0.11182   0.62265   0.05395
C          C       0.41898   0.87818   0.68791  -0.10241
C          C       0.56191   0.14382   0.69201  -0.09904
C          C       0.40056   0.86640   0.71399  -0.13534
C          C       0.58100   0.15653   0.70377  -0.13468
C          C       0.42320   0.91810   0.57159   0.07236
C          C       0.55656   0.09606   0.61364   0.06613
C          C       0.49962   0.04295   0.66792   0.05827
C          C       0.46769   0.98572   0.66434   0.05006
C          C       0.49678   0.01451   0.66627  -0.02735
C          C       0.46870   0.01529   0.66657  -0.02646
C          C       0.53041   0.98309   0.66068   0.06678
C          C       0.43449   0.04595   0.66302   0.06037
C          C       0.47744   0.07288   0.60231  -0.12333
C          C       0.49230   0.95286   0.61199  -0.11353
C          C       0.48533   0.09573   0.59610  -0.16261
C          C       0.48804   0.92722   0.60607  -0.17198
C          C       0.51605   0.08932   0.65345   0.20978
C          C       0.45824   0.93359   0.64767   0.20907
C          C       0.53712   0.06069   0.72824  -0.19026
C          C       0.43411   0.96582   0.70608  -0.19694
C          C       0.52909   0.03839   0.73478  -0.11310
C          C       0.43877   0.99098   0.71335  -0.11385
C          C       0.59948   0.93764   0.67248   0.19433
C          C       0.36505   0.08779   0.67281   0.19155
C          C       0.54917   0.97729   0.54146  -0.13048
C          C       0.41430   0.04667   0.53967  -0.12021
C          C       0.58320   0.95542   0.54759  -0.17572
C          C       0.38022   0.06746   0.54310  -0.17413
C          C       0.54614   0.96296   0.77753  -0.13147
C          C       0.41945   0.06896   0.78594  -0.12141
C          C       0.58033   0.94017   0.78320  -0.15640
C          C       0.38503   0.08941   0.79197  -0.17453
C          C       0.94409   0.03457   0.74087   0.05903
C          C       0.03879   0.99838   0.74101   0.06454
C          C       0.06486   0.97523   0.83130  -0.11847
C          C       0.91732   0.06516   0.80341  -0.11709
C          C       0.09658   0.96725   0.82817  -0.17973
C          C       0.88566   0.07252   0.80139  -0.18333
C          C       0.10428   0.98092   0.72801   0.19997
C          C       0.87865   0.04946   0.73635   0.20259
C          C       0.07802   0.00598   0.64556  -0.15483
C          C       0.90506   0.01886   0.67366  -0.15731
C          C       0.04586   0.01464   0.65348  -0.12055
C          C       0.93681   0.01164   0.67580  -0.11716
C          C       0.65192   0.90646   0.57970   0.07207
C          C       0.31103   0.11393   0.57567   0.06975
C          C       0.90454   0.91897   0.94734   0.25324
C          C       0.08292   0.08744   0.91777   0.25613
C          C       0.78930   0.85706   0.61465   0.07515
C          C       0.17739   0.15515   0.61691   0.07414
C          C       0.80426   0.87378   0.66839  -0.19285
C          C       0.16487   0.13752   0.64978  -0.18537
C          C       0.83865   0.85617   0.69532   0.07307
C          C       0.13184   0.15405   0.68855   0.07208
C          C       0.85802   0.82151   0.67033  -0.18065
C          C       0.11101   0.18888   0.69476  -0.18696
C          C       0.84351   0.80422   0.62070   0.07623
C          C       0.12352   0.20693   0.66854   0.07939
C          C       0.80938   0.82247   0.59027  -0.18672
C          C       0.15625   0.18969   0.62731  -0.18346
C          C       0.86252   0.76782   0.61139   0.06478
C          C       0.10653   0.24327   0.69408   0.06922
C          C       0.85484   0.87315   0.75649   0.07946
C          C       0.11977   0.13533   0.73491   0.08064
C          C       0.75327   0.87332   0.59393   0.06146
C          C       0.21216   0.14038   0.58629   0.06764
C          C       0.73098   0.90059   0.68934  -0.13487
C          C       0.23846   0.11260   0.65422  -0.14236
C          C       0.69793   0.91165   0.68502  -0.11873
C          C       0.27072   0.10364   0.64940  -0.11378
C          C       0.68615   0.89607   0.58340   0.05219
C          C       0.27770   0.12168   0.57354   0.05262
C          C       0.70771   0.87073   0.47936  -0.12145
C          C       0.25189   0.14738   0.49319  -0.11955
C          C       0.74077   0.85938   0.48582  -0.13393
C          C       0.21972   0.15674   0.50143  -0.13458
C          C       0.84153   0.89778   0.87590  -0.14270
C          C       0.14034   0.10918   0.82475  -0.13942
C          C       0.85797   0.91223   0.93915  -0.10758
C          C       0.12859   0.09297   0.87925  -0.11105
C          C       0.88771   0.90290   0.88201  -0.00388
C          C       0.09586   0.10272   0.84692  -0.00588
C          C       0.90087   0.87864   0.76125  -0.09309
C          C       0.07544   0.12816   0.75388  -0.08916
C          C       0.88474   0.86385   0.70007  -0.13612
C          C       0.08732   0.14405   0.69789  -0.14117
C          C       0.89610   0.74774   0.57873  -0.13115
C          C       0.07620   0.26644   0.62622  -0.14049
C          C       0.91390   0.71355   0.57972  -0.12722
C          C       0.06503   0.29974   0.63851  -0.12845
C          C       0.89849   0.69850   0.61090   0.05635
C          C       0.08421   0.31025   0.71619   0.05249
C          C       0.86463   0.71835   0.63849  -0.09799
C          C       0.11351   0.28741   0.79203  -0.10518
C          C       0.84709   0.75243   0.63964  -0.13553
C          C       0.12426   0.25456   0.78180  -0.13492
C          C       0.91822   0.66313   0.62639   0.06929
C          C       0.07427   0.34437   0.71918   0.07752
C          C       0.04543   0.45566   0.77933   0.04841
C          C       0.98179   0.55046   0.74248   0.05667
C          C       0.01566   0.48992   0.76238  -0.02447
C          C       0.01416   0.51822   0.75788  -0.03271
C          C       0.98593   0.48874   0.75074   0.05742
C          C       0.04243   0.52134   0.76456   0.05140
C          C       0.06942   0.43592   0.67293  -0.12465
C          C       0.95967   0.55558   0.62158  -0.12103
C          C       0.08795   0.40141   0.66640  -0.17329
C          C       0.93264   0.58717   0.59327  -0.15928
C          C       0.08200   0.38613   0.76462   0.20578
C          C       0.92863   0.61464   0.68251   0.20387
C          C       0.06133   0.40553   0.88307  -0.18875
C          C       0.94894   0.60962   0.81145  -0.19328
C          C       0.04362   0.43969   0.89008  -0.11612
C          C       0.97480   0.57787   0.84238  -0.12730
C          C       0.93752   0.47506   0.75577   0.20374
C          C       0.09113   0.53582   0.79537   0.20721
C          C       0.98898   0.46090   0.66800  -0.12238
C          C       0.03726   0.54875   0.70348  -0.11457
C          C       0.96527   0.45432   0.66840  -0.18672
C          C       0.06082   0.55583   0.71798  -0.18448
C          C       0.95682   0.51087   0.82820  -0.12500
C          C       0.07390   0.49994   0.83106  -0.11237
C          C       0.93322   0.50397   0.83260  -0.17283
C          C       0.09768   0.50715   0.84784  -0.19425
C          C       0.00721   0.00064   0.73612  -0.02259
C          C       0.97656   0.03014   0.74201  -0.02779
N          N       0.94341   0.13811   0.22312  -0.29846
N          N       0.05839   0.83950   0.21071  -0.30011
N          N       0.35015   0.54022   0.17269  -0.27767
N          N       0.64370   0.44512   0.21735  -0.27681
N          N       0.44508   0.64211   0.25421  -0.28912
N          N       0.54948   0.34787   0.23756  -0.28882
N          N       0.15205   0.94621   0.22352  -0.29866
N          N       0.86082   0.03183   0.17262  -0.29790
N          N       0.53643   0.09906   0.12652  -0.26545
N          N       0.46996   0.89302   0.08797  -0.27465
N          N       0.66396   0.90197   0.16170  -0.28417
N          N       0.35913   0.07873   0.18342  -0.28197
N          N       0.08421   0.34151   0.29123  -0.28213
N          N       0.90996   0.64386   0.18850  -0.27563
N          N       0.89580   0.45595   0.28622  -0.28601
N          N       0.08948   0.53606   0.34470  -0.28585
N          N       0.94661   0.15999   0.74529  -0.29983
N          N       0.05937   0.86302   0.69817  -0.30326
N          N       0.36067   0.55430   0.65826  -0.27853
N          N       0.65293   0.45894   0.67656  -0.28095
N          N       0.45140   0.65423   0.77025  -0.28657
N          N       0.54597   0.36446   0.74002  -0.28485
N          N       0.13708   0.97013   0.70974  -0.29474
N          N       0.84633   0.05743   0.71715  -0.29634
N          N       0.52584   0.11057   0.64257  -0.27911
N          N       0.45156   0.90947   0.63481  -0.28362
N          N       0.63380   0.92139   0.69382  -0.28631
N          N       0.33137   0.10196   0.68844  -0.28693
N          N       0.09542   0.35207   0.74578  -0.27103
N          N       0.90568   0.64698   0.64291  -0.26439
N          N       0.91829   0.46388   0.78152  -0.26969
N          N       0.11137   0.54750   0.82874  -0.28259
O          O       0.95480   0.90706   0.41621  -0.34857
O          O       0.07510   0.07310   0.40764  -0.35285
O          O       0.92895   0.91443   0.89661  -0.35607
O          O       0.05362   0.09768   0.91449  -0.35379

