data_crystal

_audit_creation_method 'AiiDA-DDEC plugin'

_cell_length_a        60.09490
_cell_length_b        60.08922
_cell_length_c         8.03927

_cell_angle_alpha     59.43163
_cell_angle_beta     103.48967
_cell_angle_gamma     120.03958

_symmetry_space_group_name_Hall 'P 1'
_symmetry_space_group_name_H-M  'P 1'

loop_
_symmetry_equiv_pos_as_xyz
 'x,y,z'

loop_
_atom_site_label
_atom_site_type_symbol
_atom_site_fract_x
_atom_site_fract_y
_atom_site_fract_z
_atom_site_charge
H          H       0.48440   0.54820   0.30950   0.10067
H          H       0.44827   0.93392   0.29669   0.10113
H          H       0.06226   0.51307   0.27997   0.09840
H          H       0.51264   0.44974   0.28820   0.09947
H          H       0.54694   0.06351   0.28851   0.10271
H          H       0.93348   0.48063   0.31319   0.10039
H          H       0.56671   0.58596   0.31066   0.10365
H          H       0.40863   0.97588   0.31012   0.10613
H          H       0.01875   0.42749   0.33174   0.10827
H          H       0.43057   0.41405   0.25785   0.10738
H          H       0.58545   0.02287   0.24515   0.10155
H          H       0.97657   0.56707   0.25200   0.10673
H          H       0.58839   0.56052   0.32314   0.10295
H          H       0.43252   0.02203   0.31432   0.10674
H          H       0.97227   0.40552   0.32813   0.10734
H          H       0.40921   0.43850   0.25887   0.10532
H          H       0.56127   0.97625   0.25020   0.10385
H          H       0.02321   0.58986   0.24957   0.10926
H          H       0.54524   0.47902   0.31278   0.10180
H          H       0.51495   0.06465   0.27827   0.09793
H          H       0.93278   0.45223   0.26646   0.10121
H          H       0.45238   0.51871   0.29150   0.09979
H          H       0.47894   0.93533   0.26340   0.10097
H          H       0.06298   0.54503   0.28790   0.09696
H          H       0.57794   0.47238   0.54923   0.10262
H          H       0.51360   0.08611   0.39825   0.10254
H          H       0.90057   0.41766   0.31818   0.10349
H          H       0.42186   0.51939   0.30498   0.10459
H          H       0.48124   0.89738   0.40830   0.10245
H          H       0.08590   0.56476   0.48835   0.09628
H          H       0.61662   0.46747   0.54695   0.11721
H          H       0.51758   0.13150   0.36037   0.11489
H          H       0.85937   0.37858   0.29539   0.11932
H          H       0.38165   0.52071   0.30662   0.11671
H          H       0.47913   0.85422   0.42200   0.11434
H          H       0.12938   0.60412   0.48501   0.11949
H          H       0.65242   0.55642   0.11034   0.10590
H          H       0.44155   0.11139   0.13754   0.10144
H          H       0.90011   0.34276   0.21526   0.10801
H          H       0.33821   0.44058   0.27361   0.10729
H          H       0.55440   0.90627   0.15360   0.10644
H          H       0.10627   0.66793   0.04302   0.10116
H          H       0.61401   0.56138   0.11318   0.10101
H          H       0.43810   0.06728   0.16189   0.09961
H          H       0.94091   0.38191   0.22928   0.10263
H          H       0.37770   0.43915   0.26949   0.10180
H          H       0.55646   0.94920   0.13745   0.09731
H          H       0.06302   0.62878   0.04366   0.10377
H          H       0.56473   0.60976   0.41409   0.10332
H          H       0.37585   0.94003   0.34869   0.10342
H          H       0.05578   0.42625   0.53904   0.10378
H          H       0.43267   0.37350   0.41983   0.10280
H          H       0.61145   0.04094   0.44479   0.10268
H          H       0.94461   0.56151   0.33372   0.10507
H          H       0.56745   0.65434   0.38209   0.11674
H          H       0.33512   0.89977   0.33314   0.12168
H          H       0.09614   0.42510   0.52376   0.11871
H          H       0.43094   0.33051   0.43161   0.11405
H          H       0.65411   0.08026   0.45424   0.11885
H          H       0.90375   0.56236   0.32724   0.11763
H          H       0.49117   0.63252   0.16218   0.09979
H          H       0.37740   0.86553   0.25329   0.10642
H          H       0.12533   0.51249   0.06070   0.10758
H          H       0.50696   0.38283   0.17550   0.10716
H          H       0.62527   0.14281   0.11569   0.10178
H          H       0.86252   0.48563   0.25214   0.10808
H          H       0.48894   0.58931   0.18195   0.10109
H          H       0.41750   0.90572   0.25709   0.10511
H          H       0.08517   0.51364   0.07607   0.09923
H          H       0.50874   0.42545   0.16218   0.10206
H          H       0.58306   0.10382   0.10031   0.10442
H          H       0.90259   0.48543   0.24715   0.10124
H          H       0.68516   0.54793   0.30436   0.06467
H          H       0.44508   0.13834   0.25348   0.05580
H          H       0.86357   0.31365   0.18969   0.06532
H          H       0.30963   0.45346   0.19491   0.06482
H          H       0.55233   0.86376   0.29818   0.05734
H          H       0.13347   0.68719   0.25899   0.05876
H          H       0.68134   0.48699   0.25173   0.11643
H          H       0.51006   0.19767   0.27162   0.11691
H          H       0.80394   0.31460   0.24959   0.11507
H          H       0.31264   0.51143   0.27384   0.11733
H          H       0.48779   0.80284   0.29435   0.11370
H          H       0.19427   0.68402   0.24816   0.11750
H          H       0.73009   0.56516   0.30413   0.10656
H          H       0.42842   0.16801   0.22607   0.10424
H          H       0.83504   0.26728   0.20337   0.10746
H          H       0.26410   0.43366   0.21728   0.10822
H          H       0.56998   0.83856   0.27088   0.10531
H          H       0.16141   0.73219   0.26265   0.10328
H          H       0.49384   0.65719   0.29639   0.05445
H          H       0.34129   0.83818   0.20176   0.06736
H          H       0.16122   0.50766   0.26418   0.06531
H          H       0.50522   0.33978   0.33381   0.06057
H          H       0.65488   0.15938   0.33169   0.06064
H          H       0.83147   0.49050   0.25252   0.06233
H          H       0.47563   0.68495   0.28589   0.10250
H          H       0.31363   0.79236   0.20432   0.10714
H          H       0.20752   0.52621   0.26251   0.10965
H          H       0.52330   0.31266   0.32717   0.10748
H          H       0.68362   0.20596   0.32321   0.10342
H          H       0.78648   0.47347   0.24568   0.10932
H          H       0.55779   0.72195   0.24586   0.12038
H          H       0.28046   0.83746   0.25702   0.11600
H          H       0.15883   0.44596   0.23680   0.11610
H          H       0.44176   0.28316   0.27611   0.11083
H          H       0.71515   0.15849   0.28354   0.11565
H          H       0.83501   0.55114   0.30434   0.11662
H          H       0.77745   0.58425   0.31056   0.11443
H          H       0.40894   0.19592   0.22472   0.10556
H          H       0.80637   0.21887   0.22089   0.10928
H          H       0.21666   0.41486   0.20644   0.11387
H          H       0.59005   0.81278   0.24771   0.10506
H          H       0.18933   0.77891   0.27133   0.10803
H          H       0.81577   0.57872   0.31609   0.11628
H          H       0.41377   0.23802   0.24332   0.11093
H          H       0.76256   0.17896   0.25176   0.11435
H          H       0.17826   0.41958   0.21053   0.11586
H          H       0.58560   0.77033   0.23663   0.11061
H          H       0.23290   0.81762   0.26714   0.11316
H          H       0.70086   0.46113   0.21839   0.11574
H          H       0.53822   0.24343   0.29895   0.10970
H          H       0.75631   0.29408   0.28146   0.11524
H          H       0.29334   0.53976   0.27494   0.11436
H          H       0.45990   0.75455   0.30056   0.10737
H          H       0.24208   0.70456   0.22968   0.11362
H          H       0.73922   0.45587   0.22050   0.11260
H          H       0.54304   0.28526   0.32027   0.10697
H          H       0.71255   0.25419   0.31353   0.10895
H          H       0.25503   0.54520   0.27048   0.11205
H          H       0.45545   0.71164   0.29640   0.10542
H          H       0.28558   0.74431   0.21033   0.10950
H          H       0.48602   0.54715   0.81004   0.10070
H          H       0.45259   0.93693   0.77822   0.10096
H          H       0.06705   0.51601   0.77474   0.09797
H          H       0.51866   0.45143   0.78715   0.10024
H          H       0.55173   0.06472   0.79238   0.10235
H          H       0.93818   0.48358   0.82084   0.10343
H          H       0.56842   0.58722   0.80959   0.10310
H          H       0.41400   0.97713   0.83076   0.10572
H          H       0.02293   0.43017   0.83108   0.10927
H          H       0.43670   0.41481   0.74185   0.10798
H          H       0.59025   0.02363   0.75601   0.10490
H          H       0.98178   0.57072   0.74636   0.10677
H          H       0.59143   0.56392   0.81277   0.10356
H          H       0.43793   0.02297   0.83062   0.10834
H          H       0.97666   0.40862   0.82644   0.10449
H          H       0.41400   0.43729   0.74830   0.10561
H          H       0.56600   0.97776   0.75025   0.10374
H          H       0.02810   0.59298   0.74836   0.10852
H          H       0.55086   0.48202   0.80823   0.10212
H          H       0.52014   0.06698   0.77045   0.09979
H          H       0.93750   0.45554   0.76693   0.10146
H          H       0.45442   0.51612   0.79902   0.09885
H          H       0.48365   0.93748   0.75478   0.10152
H          H       0.06791   0.54759   0.79683   0.09742
H          H       0.58521   0.47824   0.03932   0.10583
H          H       0.51845   0.08827   0.89938   0.10184
H          H       0.90483   0.42077   0.81816   0.10340
H          H       0.42307   0.51497   0.81693   0.10455
H          H       0.48616   0.89920   0.90182   0.10378
H          H       0.09027   0.56855   0.00611   0.10001
H          H       0.62531   0.47620   0.02995   0.11770
H          H       0.52061   0.13303   0.86303   0.11399
H          H       0.86368   0.38143   0.79786   0.11853
H          H       0.38188   0.51416   0.82254   0.11594
H          H       0.48422   0.85649   0.90953   0.11687
H          H       0.13324   0.60856   0.00386   0.11964
H          H       0.65686   0.56453   0.58052   0.10475
H          H       0.44438   0.11019   0.64224   0.09942
H          H       0.90453   0.34577   0.71719   0.11019
H          H       0.34135   0.43652   0.75835   0.10771
H          H       0.55967   0.90908   0.64348   0.10504
H          H       0.11024   0.67118   0.54450   0.10161
H          H       0.61681   0.56650   0.58819   0.10123
H          H       0.44276   0.06693   0.66575   0.10165
H          H       0.94524   0.38482   0.73233   0.10529
H          H       0.38174   0.43686   0.75394   0.10129
H          H       0.56134   0.95177   0.62945   0.09883
H          H       0.06800   0.63131   0.53587   0.10468
H          H       0.56601   0.60979   0.91810   0.09949
H          H       0.38143   0.94492   0.83974   0.10249
H          H       0.05924   0.42863   0.04339   0.10468
H          H       0.43913   0.37507   0.91258   0.10387
H          H       0.61518   0.04100   0.97086   0.10169
H          H       0.95089   0.56516   0.83979   0.10310
H          H       0.56845   0.65437   0.88320   0.11502
H          H       0.33995   0.90495   0.83179   0.12046
H          H       0.09795   0.42460   0.03074   0.11726
H          H       0.43691   0.33209   0.92157   0.11552
H          H       0.65782   0.08000   0.98521   0.11694
H          H       0.91086   0.56757   0.83333   0.11655
H          H       0.49226   0.63212   0.66229   0.09930
H          H       0.37979   0.86778   0.75740   0.10689
H          H       0.12871   0.51066   0.55243   0.10656
H          H       0.51296   0.38385   0.66638   0.10443
H          H       0.63030   0.14343   0.62926   0.10245
H          H       0.86764   0.49251   0.74019   0.10807
H          H       0.49028   0.58891   0.68402   0.10112
H          H       0.42076   0.90701   0.76402   0.10551
H          H       0.09000   0.51451   0.56369   0.09937
H          H       0.51492   0.42687   0.65040   0.09781
H          H       0.58820   0.10473   0.60872   0.10454
H          H       0.90695   0.49064   0.73717   0.10159
H          H       0.69167   0.55801   0.78165   0.06487
H          H       0.44601   0.13728   0.74132   0.05638
H          H       0.86789   0.31608   0.69752   0.06416
H          H       0.31068   0.44507   0.71479   0.06693
H          H       0.55754   0.86569   0.79660   0.05992
H          H       0.13591   0.69107   0.76530   0.05968
H          H       0.68851   0.49625   0.74722   0.11552
H          H       0.51006   0.19468   0.77456   0.11455
H          H       0.80761   0.31712   0.74639   0.11520
H          H       0.31407   0.50547   0.76422   0.11618
H          H       0.49277   0.80511   0.79842   0.11367
H          H       0.19678   0.68919   0.74545   0.11736
H          H       0.73744   0.57542   0.78672   0.10875
H          H       0.42880   0.16740   0.72288   0.10460
H          H       0.83982   0.27038   0.70484   0.10753
H          H       0.26480   0.42592   0.73099   0.10752
H          H       0.57470   0.83997   0.76497   0.10241
H          H       0.16394   0.73684   0.76727   0.10568
H          H       0.49508   0.65850   0.78704   0.05709
H          H       0.34368   0.84235   0.69892   0.06160
H          H       0.16475   0.50399   0.76116   0.06340
H          H       0.51045   0.34008   0.82355   0.06174
H          H       0.65995   0.15959   0.85384   0.06132
H          H       0.83719   0.49722   0.75896   0.06223
H          H       0.47786   0.68704   0.77658   0.10389
H          H       0.31606   0.79641   0.71074   0.10822
H          H       0.20951   0.52062   0.76151   0.11049
H          H       0.52701   0.31126   0.82544   0.10580
H          H       0.68823   0.20623   0.83851   0.10605
H          H       0.79308   0.48206   0.74168   0.10782
H          H       0.55984   0.72219   0.74063   0.11693
H          H       0.28327   0.84290   0.74964   0.11647
H          H       0.16016   0.44066   0.73283   0.11726
H          H       0.44579   0.28407   0.77321   0.11361
H          H       0.72058   0.15980   0.79435   0.11736
H          H       0.84208   0.55926   0.80515   0.11752
H          H       0.78487   0.59343   0.80441   0.11179
H          H       0.41047   0.19659   0.72025   0.10605
H          H       0.81156   0.22204   0.71855   0.11003
H          H       0.21739   0.40760   0.71949   0.10945
H          H       0.59386   0.81332   0.74356   0.10489
H          H       0.19197   0.78444   0.76418   0.10945
H          H       0.82296   0.58733   0.81424   0.11566
H          H       0.41668   0.23904   0.74110   0.11059
H          H       0.76813   0.18147   0.75441   0.11354
H          H       0.17930   0.41331   0.71598   0.11435
H          H       0.58848   0.77055   0.73104   0.10973
H          H       0.23558   0.82341   0.75576   0.11388
H          H       0.70768   0.47013   0.71536   0.11555
H          H       0.53920   0.23981   0.80565   0.11111
H          H       0.75997   0.29552   0.78472   0.11402
H          H       0.29504   0.53367   0.77180   0.11443
H          H       0.46400   0.75718   0.80009   0.11235
H          H       0.24441   0.70968   0.72451   0.11611
H          H       0.74593   0.46451   0.71912   0.11474
H          H       0.54535   0.28233   0.82610   0.10549
H          H       0.71659   0.25487   0.82295   0.10844
H          H       0.25693   0.53931   0.76862   0.11319
H          H       0.45863   0.71424   0.79020   0.10428
H          H       0.28802   0.74897   0.71116   0.10941
C          C       0.47353   0.99899   0.29390  -0.00581
C          C       0.99700   0.47257   0.30199  -0.00691
C          C       0.52281   0.52185   0.30364  -0.00702
C          C       0.52052  -0.00026   0.26730  -0.00497
C          C       0.99834   0.52257   0.27501  -0.00782
C          C       0.47437   0.47704   0.28181  -0.00741
C          C       0.47491   0.50058   0.28818   0.03957
C          C       0.49667   0.97567   0.27300   0.03231
C          C       0.02194   0.52194   0.28097   0.04130
C          C       0.52218   0.49789   0.30230   0.03953
C          C       0.49739   0.02314   0.28751   0.03338
C          C       0.97341   0.47338   0.29313   0.03975
C          C       0.49985   0.52368   0.29919   0.03625
C          C       0.47255   0.97514   0.28911   0.04213
C          C       0.02127   0.49645   0.29241   0.04153
C          C       0.49731   0.47517   0.28708   0.03321
C          C       0.52162   0.02351   0.27473   0.03757
C          C       0.97408   0.49865   0.28538   0.04415
C          C       0.50183   0.54732   0.30495  -0.17425
C          C       0.44873   0.95207   0.29836  -0.18327
C          C       0.04357   0.49493   0.29124  -0.17480
C          C       0.49531   0.45146   0.28219  -0.16808
C          C       0.54564   0.04594   0.27316  -0.18282
C          C       0.95175   0.49961   0.29346  -0.17375
C          C       0.52565   0.57035   0.30831   0.07318
C          C       0.42509   0.95155   0.30342   0.06482
C          C       0.04312   0.47012   0.30878   0.07315
C          C       0.47147   0.42858   0.27706   0.07483
C          C       0.56895   0.04590   0.26612   0.06591
C          C       0.95178   0.52390   0.28200   0.06780
C          C       0.54793   0.56856   0.31138  -0.18083
C          C       0.42618   0.97508   0.30662  -0.18724
C          C       0.01952   0.44647   0.32421  -0.18822
C          C       0.44921   0.43072   0.26830  -0.18080
C          C       0.56780   0.02294   0.25649  -0.18783
C          C       0.97551   0.54774   0.26335  -0.18647
C          C       0.54713   0.54467   0.31097   0.08933
C          C       0.44991   0.99880   0.30377   0.09022
C          C       0.99620   0.44742   0.31642   0.08726
C          C       0.45008   0.45453   0.27089   0.09042
C          C       0.54399  -0.00026   0.25624   0.08596
C          C       0.99893   0.54751   0.26276   0.08872
C          C       0.57008   0.54319   0.31572  -0.19169
C          C       0.45067   0.02278   0.30452  -0.17703
C          C       0.97221   0.42438   0.31547  -0.18931
C          C       0.42720   0.45591   0.26863  -0.18616
C          C       0.54315   0.97608   0.25207  -0.17675
C          C       0.02296   0.57126   0.25498  -0.18880
C          C       0.56938   0.51942   0.32102   0.07342
C          C       0.47385   0.04660   0.29506   0.07174
C          C       0.94928   0.42600   0.29312   0.06691
C          C       0.42750   0.47856   0.27796   0.06098
C          C       0.51996   0.95258   0.25883   0.07387
C          C       0.04586   0.57022   0.26642   0.07122
C          C       0.54523   0.49692   0.31534  -0.18600
C          C       0.49688   0.04592   0.28863  -0.16690
C          C       0.95050   0.45068   0.28464  -0.17460
C          C       0.45180   0.50089   0.28451  -0.18332
C          C       0.49700   0.95324   0.26552  -0.17296
C          C       0.04486   0.54533   0.28026  -0.17327
C          C       0.52662   0.59584   0.30140   0.06433
C          C       0.40049   0.92700   0.30016   0.05900
C          C       0.06748   0.46991   0.30697   0.05935
C          C       0.47070   0.40297   0.28774   0.05963
C          C       0.59395   0.06937   0.27404   0.06492
C          C       0.92729   0.52365   0.28865   0.06218
C          C       0.59305   0.51720   0.32977   0.06277
C          C       0.47541   0.07269   0.28471   0.06540
C          C       0.92441   0.40308   0.27661   0.06246
C          C       0.40350   0.47946   0.28261   0.06239
C          C       0.51890   0.92689   0.26881   0.06044
C          C       0.07116   0.59390   0.26789   0.06161
C          C       0.59423   0.49079   0.45222  -0.12681
C          C       0.49785   0.09166   0.33756  -0.12514
C          C       0.90085   0.40185   0.29093  -0.12648
C          C       0.40377   0.50225   0.29364  -0.12884
C          C       0.49714   0.89964   0.34862  -0.12492
C          C       0.09033   0.58738   0.39050  -0.12445
C          C       0.61582   0.48793   0.45237  -0.15893
C          C       0.50021   0.11708   0.31826  -0.14667
C          C       0.87751   0.37981   0.27996  -0.14950
C          C       0.38120   0.50326   0.29470  -0.15032
C          C       0.49594   0.87523   0.35963  -0.14869
C          C       0.11460   0.60917   0.38976  -0.15746
C          C       0.63730   0.51166   0.33121   0.20483
C          C       0.47992   0.12459   0.25043   0.20591
C          C       0.87646   0.35778   0.25504   0.19274
C          C       0.35706   0.48156   0.28354   0.19721
C          C       0.51661   0.87685   0.29317   0.20146
C          C       0.12054   0.63857   0.26764   0.20710
C          C       0.63641   0.53828   0.21085  -0.17642
C          C       0.45731   0.10576   0.19719  -0.17509
C          C       0.89994   0.35887   0.23998  -0.17178
C          C       0.35647   0.45822   0.27785  -0.16709
C          C       0.53864   0.90398   0.21546  -0.17347
C          C       0.10151   0.64532   0.14421  -0.18271
C          C       0.61471   0.54093   0.21129  -0.12465
C          C       0.45529   0.08063   0.21262  -0.12078
C          C       0.92320   0.38112   0.24906  -0.12530
C          C       0.37909   0.45738   0.27671  -0.12002
C          C       0.53966   0.92833   0.20441  -0.11946
C          C       0.07725   0.62329   0.14460  -0.12284
C          C       0.54871   0.61488   0.35569  -0.12616
C          C       0.37655   0.92442   0.32157  -0.12594
C          C       0.07092   0.44501   0.43293  -0.12315
C          C       0.44885   0.37572   0.36351  -0.12546
C          C       0.61448   0.06328   0.37222  -0.12687
C          C       0.92685   0.54526   0.30989  -0.12959
C          C       0.55037   0.63982   0.33880  -0.14901
C          C       0.35349   0.90170   0.31489  -0.14941
C          C       0.09342   0.44430   0.42590  -0.15434
C          C       0.44789   0.35149   0.37334  -0.15153
C          C       0.63829   0.08507   0.37880  -0.15595
C          C       0.90394   0.54580   0.30813  -0.14330
C          C       0.52962   0.64657   0.27187   0.20718
C          C       0.35298   0.88004   0.28834   0.18918
C          C       0.11359   0.46881   0.29487   0.20161
C          C       0.46896   0.35331   0.31028   0.20494
C          C       0.64246   0.11402   0.29098   0.20674
C          C       0.88019   0.52443   0.28828   0.19913
C          C       0.50727   0.62747   0.21941  -0.17659
C          C       0.37677   0.88179   0.27340  -0.17045
C          C       0.11038   0.49392   0.16913  -0.17595
C          C       0.49101   0.38044   0.23592  -0.17393
C          C       0.62207   0.12037   0.19148  -0.18213
C          C       0.88036   0.50238   0.27060  -0.16899
C          C       0.50597   0.60284   0.23255  -0.12124
C          C       0.39975   0.90484   0.27706  -0.12397
C          C       0.08770   0.49437   0.17668  -0.12838
C          C       0.49181   0.40460   0.22629  -0.12276
C          C       0.59832   0.09839   0.18339  -0.12557
C          C       0.90333   0.50217   0.26958  -0.12076
C          C       0.68108   0.52800   0.30309   0.07661
C          C       0.46529   0.15446   0.24582   0.07223
C          C       0.84798   0.31593   0.21795   0.07697
C          C       0.31312   0.46926   0.24152   0.07136
C          C       0.53233   0.84824   0.29288   0.07940
C          C       0.14948   0.68315   0.26015   0.07386
C          C       0.70339   0.52607   0.28051   0.05263
C          C       0.46903   0.18028   0.24807   0.06525
C          C       0.82200   0.29334   0.22498   0.06346
C          C       0.29068   0.47226   0.24688   0.05704
C          C       0.52905   0.82319   0.28309   0.06496
C          C       0.17535   0.70581   0.25558   0.06060
C          C       0.70062   0.50294   0.26028  -0.16378
C          C       0.49358   0.20101   0.26395  -0.14842
C          C       0.80055   0.29544   0.24401  -0.15781
C          C       0.29339   0.49581   0.26144  -0.16395
C          C       0.50453   0.80097   0.28545  -0.15182
C          C       0.19713   0.70327   0.24988  -0.15939
C          C       0.72216   0.50040   0.25054   0.07524
C          C       0.49674   0.22503   0.27373   0.07707
C          C       0.77562   0.27326   0.25959   0.07400
C          C       0.27192   0.49923   0.25924   0.07290
C          C       0.50161   0.77666   0.28082   0.07723
C          C       0.22193   0.72520   0.24315   0.07664
C          C       0.74732   0.52166   0.26351   0.00421
C          C       0.47463   0.22867   0.26570   0.00300
C          C       0.77201   0.24785   0.25937  -0.00105
C          C       0.24679   0.47794   0.24684   0.00023
C          C       0.52401   0.77476   0.26988   0.00183
C          C       0.22499   0.75030   0.24499   0.00082
C          C       0.75020   0.54570   0.27846   0.07120
C          C       0.44968   0.20778   0.24785   0.07510
C          C       0.79380   0.24573   0.23919   0.07680
C          C       0.24396   0.45372   0.23476   0.07570
C          C       0.54900   0.79760   0.26444   0.07637
C          C       0.20282   0.75266   0.25413   0.07773
C          C       0.72810   0.54752   0.28538  -0.18244
C          C       0.44740   0.18391   0.24036  -0.18890
C          C       0.81842   0.26870   0.22066  -0.18344
C          C       0.26605   0.45157   0.23236  -0.18259
C          C       0.55100   0.82129   0.27228  -0.18729
C          C       0.17836   0.73042   0.25677  -0.18773
C          C       0.51364   0.67484   0.27253   0.07527
C          C       0.32534   0.83938   0.23558   0.07495
C          C       0.15801   0.48774   0.26716   0.07316
C          C       0.48550   0.32491   0.31685   0.07963
C          C       0.67092   0.15695   0.31197   0.07403
C          C       0.83550   0.50891   0.27317   0.06989
C          C       0.51656   0.70094   0.26539   0.06316
C          C       0.29959   0.81718   0.23156   0.06646
C          C       0.18083   0.48600   0.25252   0.05737
C          C       0.48267   0.30040   0.30214   0.06092
C          C       0.69684   0.17978   0.30514   0.05961
C          C       0.81308   0.51214   0.27487   0.05930
C          C       0.49460   0.70276   0.27673  -0.18617
C          C       0.29662   0.79337   0.21896  -0.18295
C          C       0.20546   0.50771   0.25460  -0.19268
C          C       0.50442   0.29701   0.30916  -0.18564
C          C       0.70033   0.20440   0.30936  -0.18605
C          C       0.78849   0.49160   0.25831  -0.19113
C          C       0.49652   0.72704   0.27626   0.07605
C          C       0.27219   0.77075   0.22594   0.07697
C          C       0.22759   0.50544   0.25378   0.07693
C          C       0.50230   0.27357   0.29662   0.07090
C          C       0.72501   0.22717   0.29535   0.07728
C          C       0.76647   0.49434   0.25342   0.07366
C          C       0.52147   0.75020   0.26631   0.00285
C          C       0.24996   0.77270   0.23951  -0.00220
C          C       0.22477   0.48089   0.24627  -0.00425
C          C       0.47741   0.25281   0.27640   0.00597
C          C       0.74685   0.22497   0.27711   0.00099
C          C       0.76932   0.51861   0.26520  -0.00314
C          C       0.54389   0.74837   0.25472   0.07631
C          C       0.25297   0.79740   0.24671   0.07514
C          C       0.19963   0.45935   0.23651   0.07807
C          C       0.45524   0.25634   0.26833   0.07712
C          C       0.74329   0.19967   0.27555   0.07482
C          C       0.79441   0.53941   0.28403   0.08157
C          C       0.54104   0.72388   0.25352  -0.14811
C          C       0.27771   0.81897   0.24542  -0.15705
C          C       0.17813   0.46215   0.24203  -0.16829
C          C       0.45830   0.28007   0.28095  -0.14494
C          C       0.71838   0.17760   0.28895  -0.15583
C          C       0.81580   0.53578   0.28856  -0.16741
C          C       0.77555   0.56644   0.29452  -0.13581
C          C       0.42782   0.21185   0.23975  -0.14120
C          C       0.78970   0.22013   0.23855  -0.13479
C          C       0.21861   0.43278   0.22131  -0.13782
C          C       0.57112   0.79528   0.25219  -0.14071
C          C       0.20634   0.77763   0.26071  -0.13956
C          C       0.79672   0.56336   0.29799  -0.13479
C          C       0.43048   0.23513   0.24912  -0.13282
C          C       0.76552   0.19805   0.25620  -0.13240
C          C       0.19737   0.43544   0.22264  -0.13111
C          C       0.56869   0.77180   0.24692  -0.12676
C          C       0.23037   0.79902   0.25797  -0.13000
C          C       0.71996   0.47673   0.23358  -0.13366
C          C       0.52150   0.24630   0.29295  -0.12995
C          C       0.75337   0.27488   0.27867  -0.13454
C          C       0.27418   0.52365   0.26621  -0.13302
C          C       0.47682   0.75316   0.28947  -0.13111
C          C       0.24457   0.72358   0.23271  -0.13584
C          C       0.74115   0.47375   0.23571  -0.14232
C          C       0.52415   0.26946   0.30400  -0.13916
C          C       0.72917   0.25279   0.29644  -0.13896
C          C       0.25300   0.52673   0.26257  -0.14383
C          C       0.47440   0.72939   0.28808  -0.14269
C          C       0.26860   0.74554   0.22222  -0.13621
C          C       0.47855   0.00086   0.79282  -0.00494
C          C       0.00168   0.47541   0.80518  -0.00690
C          C       0.52609   0.52243   0.80661  -0.00622
C          C       0.52530   0.00142   0.76520  -0.00575
C          C       0.00321   0.52545   0.77804  -0.00965
C          C       0.47872   0.47693   0.78100  -0.00472
C          C       0.47824   0.49977   0.79067   0.03779
C          C       0.50138   0.97762   0.76722   0.03737
C          C       0.02683   0.52471   0.78491   0.04128
C          C       0.52644   0.49905   0.80367   0.03844
C          C       0.50242   0.02504   0.78484   0.03466
C          C       0.97808   0.47627   0.79699   0.03980
C          C       0.50266   0.52336   0.80295   0.03569
C          C       0.47730   0.97721   0.78326   0.03852
C          C       0.02608   0.49925   0.79456   0.04109
C          C       0.50210   0.47585   0.78711   0.02979
C          C       0.52649   0.02516   0.77320   0.03601
C          C       0.97882   0.50158   0.78927   0.04199
C          C       0.50381   0.54674   0.80787  -0.17185
C          C       0.45333   0.95456   0.78898  -0.18226
C          C       0.04831   0.49776   0.78885  -0.17946
C          C       0.50100   0.45267   0.77958  -0.16863
C          C       0.55049   0.04725   0.77619  -0.18076
C          C       0.95652   0.50268   0.79762  -0.17292
C          C       0.52724   0.57022   0.81140   0.07589
C          C       0.42988   0.95385   0.80288   0.06859
C          C       0.04765   0.47285   0.80584   0.07484
C          C       0.47758   0.42983   0.76868   0.07120
C          C       0.57375   0.04688   0.77415   0.06950
C          C       0.95672   0.52731   0.78243   0.06658
C          C       0.54993   0.56931   0.81274  -0.18274
C          C       0.43130   0.97674   0.81596  -0.18449
C          C       0.02389   0.44925   0.82339  -0.18797
C          C       0.45495   0.43137   0.75786  -0.17467
C          C       0.57260   0.02396   0.76373  -0.19278
C          C       0.98055   0.55110   0.76152  -0.18818
C          C       0.54996   0.54593   0.81134   0.09191
C          C       0.45511   0.00044   0.80930   0.08934
C          C       0.00068   0.45028   0.81760   0.08580
C          C       0.45492   0.45437   0.76498   0.08889
C          C       0.54878   0.00120   0.75754   0.08628
C          C       0.00388   0.55054   0.76364   0.08929
C          C       0.57344   0.54591   0.80971  -0.19397
C          C       0.45595   0.02409   0.81380  -0.17981
C          C       0.97661   0.42733   0.81640  -0.18342
C          C       0.43152   0.45480   0.76173  -0.17935
C          C       0.54789   0.97772   0.75079  -0.17935
C          C       0.02788   0.57427   0.75568  -0.18776
C          C       0.57372   0.52283   0.81232   0.07084
C          C       0.47913   0.04814   0.79866   0.07192
C          C       0.95372   0.42898   0.79507   0.06419
C          C       0.43078   0.47651   0.77609   0.06303
C          C       0.52469   0.95453   0.75326   0.07316
C          C       0.05078   0.57308   0.77012   0.07078
C          C       0.55005   0.49941   0.81216  -0.18222
C          C       0.50210   0.04794   0.78563  -0.17474
C          C       0.95511   0.45373   0.78706  -0.17128
C          C       0.45463   0.49899   0.78773  -0.17424
C          C       0.50170   0.95526   0.75881  -0.17073
C          C       0.04978   0.54804   0.78625  -0.17968
C          C       0.52786   0.59553   0.80502   0.06103
C          C       0.40490   0.92983   0.79979   0.05893
C          C       0.07162   0.47175   0.80361   0.06014
C          C       0.47702   0.40445   0.77732   0.06148
C          C       0.59858   0.07000   0.78801   0.06103
C          C       0.93254   0.52779   0.78841   0.05948
C          C       0.59805   0.52240   0.81280   0.05956
C          C       0.48020   0.07382   0.78887   0.06496
C          C       0.92877   0.40610   0.77858   0.06399
C          C       0.40621   0.47625   0.78140   0.06352
C          C       0.52372   0.92908   0.76047   0.06164
C          C       0.07586   0.59701   0.77243   0.06149
C          C       0.60079   0.49699   0.93701  -0.12276
C          C       0.50228   0.09316   0.84089  -0.12800
C          C       0.90519   0.40490   0.79193  -0.12631
C          C       0.40542   0.49786   0.80064  -0.13191
C          C       0.50205   0.90175   0.83984  -0.11945
C          C       0.09469   0.59101   0.90291  -0.12788
C          C       0.62312   0.49576   0.93313  -0.15227
C          C       0.50359   0.11807   0.82243  -0.15135
C          C       0.88184   0.38267   0.78260  -0.14876
C          C       0.38229   0.49766   0.80394  -0.14487
C          C       0.50096   0.87759   0.84808  -0.14924
C          C       0.11863   0.61316   0.90379  -0.15440
C          C       0.64378   0.52019   0.80659   0.20325
C          C       0.48258   0.12438   0.75584   0.20661
C          C       0.88075   0.36053   0.75885   0.19104
C          C       0.35866   0.47604   0.78560   0.19827
C          C       0.52176   0.87946   0.78148   0.20564
C          C       0.12433   0.64240   0.77730   0.20867
C          C       0.64135   0.54587   0.68384  -0.18044
C          C       0.46047   0.10520   0.70214  -0.16717
C          C       0.90429   0.36178   0.74264  -0.17177
C          C       0.35916   0.45392   0.77047  -0.16719
C          C       0.54378   0.90663   0.70484  -0.17874
C          C       0.10557   0.64864   0.64711  -0.18767
C          C       0.61880   0.54685   0.68764  -0.12900
C          C       0.45948   0.08065   0.71707  -0.12119
C          C       0.92752   0.38404   0.75185  -0.12857
C          C       0.38229   0.45413   0.76852  -0.12604
C          C       0.54457   0.93081   0.69494  -0.12694
C          C       0.08185   0.62624   0.64362  -0.12414
C          C       0.54987   0.61469   0.85929  -0.12508
C          C       0.38146   0.92854   0.81769  -0.12584
C          C       0.07438   0.44651   0.93464  -0.12593
C          C       0.45511   0.37727   0.85413  -0.11838
C          C       0.61862   0.06352   0.89422  -0.13018
C          C       0.93287   0.54953   0.81309  -0.12950
C          C       0.55141   0.63965   0.84107  -0.14782
C          C       0.35795   0.90609   0.81415  -0.14961
C          C       0.09604   0.44421   0.92884  -0.15483
C          C       0.45387   0.35303   0.86278  -0.14652
C          C       0.64240   0.08515   0.90348  -0.15480
C          C       0.91045   0.55098   0.81103  -0.14714
C          C       0.53064   0.64636   0.77307   0.20831
C          C       0.35656   0.88381   0.79036   0.19298
C          C       0.11626   0.46745   0.79381   0.20117
C          C       0.47482   0.35468   0.79954   0.20220
C          C       0.64701   0.11432   0.81039   0.20926
C          C       0.88634   0.53052   0.78642   0.19842
C          C       0.50836   0.62712   0.72106  -0.17645
C          C       0.37988   0.88454   0.77598  -0.16990
C          C       0.11383   0.49297   0.66370  -0.17556
C          C       0.49703   0.38168   0.72540  -0.17734
C          C       0.62689   0.12092   0.70648  -0.18527
C          C       0.88572   0.50840   0.76454  -0.16770
C          C       0.50719   0.60247   0.73525  -0.11802
C          C       0.40332   0.90703   0.78019  -0.12522
C          C       0.09188   0.49497   0.66946  -0.12653
C          C       0.49799   0.40600   0.71492  -0.12482
C          C       0.60320   0.09911   0.69547  -0.12036
C          C       0.90826   0.50722   0.76452  -0.11929
C          C       0.68810   0.53808   0.78283   0.07012
C          C       0.46598   0.15317   0.74320   0.07301
C          C       0.85222   0.31857   0.72252   0.07690
C          C       0.31424   0.46199   0.75028   0.06794
C          C       0.53755   0.85040   0.78853   0.07480
C          C       0.15222   0.68744   0.76713   0.07520
C          C       0.71068   0.53589   0.76887   0.05537
C          C       0.46931   0.17865   0.74712   0.06104
C          C       0.82629   0.29613   0.72536   0.06013
C          C       0.29177   0.46535   0.74992   0.05881
C          C       0.53393   0.82504   0.78127   0.06482
C          C       0.17792   0.71059   0.75885   0.06093
C          C       0.70782   0.51220   0.75520  -0.16587
C          C       0.49401   0.19875   0.76581  -0.14443
C          C       0.80458   0.29803   0.74163  -0.15559
C          C       0.29469   0.48959   0.75657  -0.16870
C          C       0.50916   0.80290   0.78688  -0.14870
C          C       0.19969   0.70831   0.74943  -0.15723
C          C       0.72922   0.50916   0.75063   0.08005
C          C       0.49785   0.22290   0.77642   0.07784
C          C       0.77977   0.27563   0.75669   0.07279
C          C       0.27336   0.49323   0.75421   0.07948
C          C       0.50570   0.77853   0.78038   0.07675
C          C       0.22446   0.73020   0.74230   0.07363
C          C       0.75439   0.53024   0.76518  -0.00477
C          C       0.47615   0.22724   0.76735   0.00280
C          C       0.77649   0.25038   0.75588  -0.00031
C          C       0.24811   0.47189   0.74397  -0.00367
C          C       0.52778   0.77629   0.76678  -0.00023
C          C       0.22752   0.75523   0.74513   0.00370
C          C       0.75739   0.55465   0.77581   0.07663
C          C       0.45093   0.20690   0.74749   0.07362
C          C       0.79851   0.24860   0.73622   0.07690
C          C       0.24507   0.44719   0.73735   0.07239
C          C       0.55299   0.79884   0.76067   0.07681
C          C       0.20537   0.75764   0.75405   0.07482
C          C       0.73537   0.55719   0.77511  -0.19345
C          C       0.44799   0.18286   0.73853  -0.18933
C          C       0.82302   0.27164   0.72038  -0.18393
C          C       0.26704   0.44446   0.73937  -0.18761
C          C       0.55555   0.82279   0.76851  -0.18808
C          C       0.18089   0.73521   0.75961  -0.19074
C          C       0.51510   0.67558   0.76710   0.07443
C          C       0.32804   0.84367   0.73597   0.08131
C          C       0.16027   0.48359   0.76481   0.07762
C          C       0.49048   0.32530   0.81003   0.07432
C          C       0.67584   0.15734   0.82956   0.08059
C          C       0.84192   0.51634   0.77363   0.07196
C          C       0.51866   0.70200   0.75915   0.06486
C          C       0.30217   0.82180   0.73186   0.06376
C          C       0.18244   0.48068   0.74991   0.05583
C          C       0.48666   0.30009   0.79994   0.06130
C          C       0.70178   0.18065   0.81630   0.05960
C          C       0.81989   0.52031   0.77467   0.05558
C          C       0.49702   0.70447   0.76927  -0.18805
C          C       0.29911   0.79774   0.72237  -0.18272
C          C       0.20729   0.50214   0.75223  -0.18471
C          C       0.50789   0.29585   0.80850  -0.18850
C          C       0.70502   0.20529   0.81895  -0.18288
C          C       0.79518   0.49995   0.75788  -0.18474
C          C       0.49951   0.72885   0.77054   0.07438
C          C       0.27465   0.77534   0.72800   0.07837
C          C       0.22927   0.49976   0.75000   0.07486
C          C       0.50492   0.27189   0.79839   0.07189
C          C       0.72949   0.22868   0.79842   0.07776
C          C       0.77325   0.50267   0.75539   0.07519
C          C       0.52470   0.75163   0.76160   0.00477
C          C       0.25251   0.77759   0.73957  -0.00059
C          C       0.22620   0.47510   0.74255   0.00293
C          C       0.47970   0.25162   0.77840   0.00130
C          C       0.75149   0.22711   0.77588   0.00045
C          C       0.77630   0.52692   0.76843   0.00088
C          C       0.54677   0.74928   0.74945   0.07599
C          C       0.25562   0.80255   0.74359   0.07284
C          C       0.20091   0.45365   0.73415   0.07431
C          C       0.45801   0.25598   0.76975   0.07834
C          C       0.74827   0.20175   0.77694   0.07357
C          C       0.80148   0.54772   0.78571   0.07318
C          C       0.54335   0.72455   0.74808  -0.14750
C          C       0.28042   0.82410   0.74175  -0.16002
C          C       0.17949   0.45675   0.73891  -0.16394
C          C       0.46188   0.28011   0.78081  -0.15077
C          C       0.72349   0.17905   0.79633  -0.15781
C          C       0.82283   0.54399   0.78908  -0.16109
C          C       0.78280   0.57530   0.79165  -0.14377
C          C       0.42957   0.21189   0.73817  -0.14240
C          C       0.79475   0.22307   0.73626  -0.13757
C          C       0.21958   0.42612   0.72766  -0.13815
C          C       0.57477   0.79605   0.74761  -0.14539
C          C       0.20898   0.78294   0.75628  -0.13774
C          C       0.80386   0.57185   0.79790  -0.12929
C          C       0.43295   0.23535   0.74883  -0.13150
C          C       0.77073   0.20061   0.75634  -0.13390
C          C       0.19849   0.42930   0.72527  -0.13146
C          C       0.57181   0.77238   0.74185  -0.12862
C          C       0.23304   0.80447   0.75125  -0.13455
C          C       0.72678   0.48537   0.73392  -0.13146
C          C       0.52291   0.24347   0.79772  -0.13219
C          C       0.75732   0.27662   0.77934  -0.13398
C          C       0.27586   0.51772   0.76177  -0.13224
C          C       0.48066   0.75540   0.78821  -0.13555
C          C       0.24701   0.72854   0.73047  -0.13354
C          C       0.74790   0.48228   0.73604  -0.13480
C          C       0.52629   0.26696   0.80802  -0.13975
C          C       0.73330   0.25410   0.80038  -0.13566
C          C       0.25476   0.52088   0.75936  -0.13560
C          C       0.47772   0.73168   0.78343  -0.13727
C          C       0.27105   0.75024   0.72287  -0.13631
N          N       0.65793   0.50734   0.32626  -0.28236
N          N       0.48426   0.15030   0.24271  -0.28440
N          N       0.85179   0.33665   0.24942  -0.30262
N          N       0.33559   0.48471   0.28623  -0.29118
N          N       0.51298   0.85172   0.29720  -0.28985
N          N       0.14556   0.65935   0.27004  -0.27736
N          N       0.53312   0.67216   0.26012  -0.28298
N          N       0.32856   0.85875   0.27941  -0.30164
N          N       0.13533   0.46638   0.28978  -0.27536
N          N       0.46587   0.32854   0.31214  -0.28981
N          N       0.66721   0.13492   0.29734  -0.28078
N          N       0.85842   0.52700   0.29203  -0.29556
N          N       0.66522   0.51717   0.80260  -0.27679
N          N       0.48561   0.14945   0.74887  -0.29126
N          N       0.85603   0.33935   0.75340  -0.30430
N          N       0.33674   0.47845   0.78797  -0.29578
N          N       0.51825   0.85433   0.78679  -0.28648
N          N       0.14895   0.66369   0.78035  -0.27519
N          N       0.53432   0.67212   0.75972  -0.28759
N          N       0.33180   0.86296   0.78264  -0.30640
N          N       0.13698   0.46321   0.78854  -0.27837
N          N       0.47125   0.32957   0.80427  -0.28317
N          N       0.67188   0.13527   0.81453  -0.28259
N          N       0.86518   0.53428   0.78793  -0.29340

