data_crystal

_audit_creation_method 'AiiDA-DDEC plugin'

_cell_length_a        55.65241
_cell_length_b        55.62795
_cell_length_c         8.07095

_cell_angle_alpha     75.66317
_cell_angle_beta     120.79259
_cell_angle_gamma     119.95855

_symmetry_space_group_name_Hall 'P 1'
_symmetry_space_group_name_H-M  'P 1'

loop_
_symmetry_equiv_pos_as_xyz
 'x,y,z'

loop_
_atom_site_label
_atom_site_type_symbol
_atom_site_fract_x
_atom_site_fract_y
_atom_site_fract_z
_atom_site_charge
H          H       0.44809   0.51810   0.29581   0.10112
H          H       0.48103   0.93064   0.26368   0.10047
H          H       0.06933   0.55078   0.27651   0.10495
H          H       0.54835   0.48214   0.24483   0.09990
H          H       0.51678   0.07026   0.28546   0.09619
H          H       0.92882   0.44700   0.27593   0.09920
H          H       0.40592   0.42920   0.31163   0.10966
H          H       0.57188   0.97665   0.28754   0.10525
H          H       0.02517   0.59470   0.28536   0.10404
H          H       0.59310   0.57094   0.24987   0.10259
H          H       0.42580   0.02441   0.25342   0.10944
H          H       0.97140   0.40233   0.24856   0.10792
H          H       0.43081   0.40466   0.31106   0.10490
H          H       0.59610   0.02629   0.28544   0.11125
H          H       0.97539   0.56963   0.29133   0.10453
H          H       0.56904   0.59637   0.26175   0.10304
H          H       0.40198   0.97421   0.26157   0.10526
H          H       0.02055   0.42661   0.24655   0.10893
H          H       0.51815   0.44870   0.28723   0.09974
H          H       0.55014   0.07053   0.26400   0.09577
H          H       0.93235   0.48085   0.31830   0.10182
H          H       0.48244   0.55329   0.28798   0.10526
H          H       0.45094   0.93041   0.31495   0.10036
H          H       0.06855   0.51545   0.27266   0.10005
H          H       0.61736   0.56655   0.13607   0.09907
H          H       0.42593   0.06648   0.00943   0.10348
H          H       0.93463   0.36804   0.22646   0.10151
H          H       0.36311   0.43454   0.12786   0.10097
H          H       0.56849   0.94231   0.23875   0.10379
H          H       0.04857   0.62096   0.06243   0.10065
H          H       0.66164   0.56538   0.14844   0.10489
H          H       0.42737   0.11229   0.99215   0.10283
H          H       0.89085   0.32469   0.22449   0.11148
H          H       0.31647   0.43432   0.09259   0.10189
H          H       0.56905   0.89906   0.23507   0.10799
H          H       0.09302   0.66406   0.04674   0.10683
H          H       0.63696   0.48404   0.39419   0.11602
H          H       0.51836   0.14069   0.48430   0.11911
H          H       0.85244   0.36911   0.30085   0.11534
H          H       0.37331   0.51357   0.37874   0.11546
H          H       0.48350   0.85299   0.28008   0.12001
H          H       0.15698   0.63300   0.48819   0.11520
H          H       0.59210   0.48504   0.38258   0.10280
H          H       0.51708   0.09476   0.49971   0.09913
H          H       0.89718   0.41327   0.30799   0.10606
H          H       0.42091   0.51331   0.42376   0.10279
H          H       0.48317   0.89668   0.28923   0.10263
H          H       0.11218   0.58953   0.50150   0.10198
H          H       0.47868   0.59305   0.08590   0.10580
H          H       0.41172   0.89613   0.24159   0.10078
H          H       0.09072   0.51013   0.14461   0.10098
H          H       0.51655   0.41519   0.26015   0.10310
H          H       0.57336   0.09617   0.05471   0.09631
H          H       0.89073   0.48325   0.18641   0.10092
H          H       0.48172   0.63829   0.10816   0.10034
H          H       0.36739   0.85240   0.22929   0.10433
H          H       0.13487   0.50806   0.15852   0.10606
H          H       0.51648   0.37186   0.25192   0.10678
H          H       0.61810   0.13990   0.04433   0.10892
H          H       0.84575   0.48332   0.17282   0.09812
H          H       0.57954   0.66833   0.50699   0.11673
H          H       0.32921   0.89532   0.32485   0.11690
H          H       0.11180   0.42875   0.43112   0.11469
H          H       0.43236   0.32610   0.31209   0.12031
H          H       0.68238   0.10939   0.48691   0.11988
H          H       0.90212   0.56779   0.37756   0.11523
H          H       0.57634   0.62268   0.48790   0.10201
H          H       0.37505   0.93967   0.34902   0.10654
H          H       0.06709   0.43047   0.41684   0.10288
H          H       0.43211   0.36980   0.32179   0.10399
H          H       0.63745   0.06535   0.49700   0.10501
H          H       0.94812   0.56729   0.40352   0.09978
H          H       0.70398   0.56400   0.26519   0.05570
H          H       0.42896   0.14167   0.17043   0.05611
H          H       0.84731   0.29225   0.16518   0.06541
H          H       0.28759   0.43306   0.19611   0.05794
H          H       0.55761   0.85992   0.16224   0.06357
H          H       0.13643   0.70273   0.21637   0.06125
H          H       0.49150   0.66810   0.31740   0.06080
H          H       0.33707   0.81924   0.33372   0.05982
H          H       0.18064   0.50765   0.33238   0.06065
H          H       0.51885   0.33335   0.35098   0.05955
H          H       0.66220   0.17801   0.26462   0.06127
H          H       0.82194   0.48587   0.30719   0.05657
H          H       0.74860   0.58383   0.21946   0.10057
H          H       0.40716   0.17022   0.15746   0.10127
H          H       0.82085   0.24321   0.18698   0.10897
H          H       0.23567   0.41156   0.16113   0.10186
H          H       0.58237   0.83217   0.20226   0.10766
H          H       0.16205   0.75143   0.18439   0.10112
H          H       0.79044   0.58069   0.20450   0.11087
H          H       0.41165   0.21626   0.18100   0.11222
H          H       0.77521   0.20043   0.19833   0.11682
H          H       0.19358   0.41331   0.18223   0.10997
H          H       0.58300   0.78670   0.24768   0.11466
H          H       0.20778   0.79468   0.18458   0.11229
H          H       0.70595   0.49579   0.30513   0.11401
H          H       0.50154   0.20864   0.23928   0.11782
H          H       0.78853   0.29396   0.25701   0.11671
H          H       0.29083   0.49960   0.25587   0.11465
H          H       0.49664   0.79367   0.24068   0.11484
H          H       0.20798   0.70277   0.26847   0.11865
H          H       0.73096   0.46741   0.32613   0.10839
H          H       0.53334   0.26010   0.28544   0.11327
H          H       0.73817   0.27152   0.27613   0.11139
H          H       0.27051   0.52695   0.30090   0.11250
H          H       0.47015   0.74216   0.27003   0.11157
H          H       0.26205   0.72659   0.30136   0.11137
H          H       0.77394   0.46474   0.32442   0.10105
H          H       0.53868   0.30558   0.32583   0.10270
H          H       0.69219   0.22871   0.28006   0.10534
H          H       0.22943   0.52883   0.33292   0.10426
H          H       0.46967   0.69658   0.30362   0.10452
H          H       0.30887   0.77014   0.32142   0.10007
H          H       0.81580   0.55257   0.23166   0.11547
H          H       0.44386   0.26744   0.23629   0.11813
H          H       0.72599   0.17844   0.22098   0.11434
H          H       0.17405   0.44058   0.24210   0.11249
H          H       0.55761   0.73544   0.29102   0.11724
H          H       0.26207   0.81859   0.22183   0.11863
H          H       0.44947   0.51720   0.79424   0.10054
H          H       0.48255   0.93165   0.75295   0.10137
H          H       0.07105   0.55379   0.77177   0.10413
H          H       0.55168   0.48448   0.74084   0.10181
H          H       0.52009   0.07142   0.78364   0.09658
H          H       0.93287   0.44649   0.78250   0.09951
H          H       0.40852   0.42833   0.80698   0.10925
H          H       0.57514   0.97665   0.80306   0.10816
H          H       0.02414   0.59510   0.77853   0.10489
H          H       0.59468   0.57338   0.75054   0.10282
H          H       0.42957   0.02622   0.75747   0.10928
H          H       0.97785   0.40500   0.74683   0.10558
H          H       0.43419   0.40473   0.80320   0.10640
H          H       0.59981   0.02638   0.80026   0.10889
H          H       0.97576   0.56897   0.79408   0.10418
H          H       0.56981   0.59755   0.76406   0.10301
H          H       0.40569   0.97635   0.76900   0.10517
H          H       0.02601   0.43056   0.73703   0.10701
H          H       0.52232   0.45042   0.78933   0.10114
H          H       0.55347   0.07154   0.76073   0.09841
H          H       0.93414   0.48019   0.81649   0.10161
H          H       0.48390   0.55263   0.79832   0.10311
H          H       0.45261   0.93144   0.80767   0.10244
H          H       0.07155   0.51963   0.76482   0.09881
H          H       0.61927   0.57050   0.63328   0.09995
H          H       0.42909   0.06751   0.51587   0.10533
H          H       0.94128   0.36984   0.71782   0.10097
H          H       0.36476   0.43309   0.63192   0.10030
H          H       0.57006   0.94178   0.74167   0.10339
H          H       0.04730   0.62265   0.55583   0.10191
H          H       0.66467   0.57112   0.64693   0.10293
H          H       0.42986   0.11281   0.50399   0.10227
H          H       0.89848   0.32554   0.71782   0.11043
H          H       0.31837   0.43392   0.59263   0.10331
H          H       0.56941   0.89792   0.73711   0.10669
H          H       0.09094   0.66630   0.53727   0.10756
H          H       0.64185   0.48940   0.88723   0.11596
H          H       0.52158   0.14188   0.98830   0.11838
H          H       0.85881   0.36699   0.81155   0.11611
H          H       0.37602   0.51333   0.87616   0.11379
H          H       0.48336   0.85347   0.77770   0.11880
H          H       0.15670   0.63673   0.97600   0.11705
H          H       0.59658   0.48896   0.88102   0.10355
H          H       0.52088   0.09631   0.00047   0.09908
H          H       0.90241   0.41208   0.81716   0.10489
H          H       0.42319   0.51249   0.92082   0.10083
H          H       0.48477   0.89772   0.79284   0.10153
H          H       0.11261   0.59247   0.99141   0.10593
H          H       0.47862   0.59174   0.58782   0.10375
H          H       0.41298   0.89665   0.74737   0.10154
H          H       0.09564   0.51637   0.64229   0.10112
H          H       0.52069   0.41655   0.75797   0.10473
H          H       0.57861   0.09742   0.55619   0.10077
H          H       0.89162   0.48216   0.69714   0.10019
H          H       0.48016   0.63655   0.60204   0.10279
H          H       0.36753   0.85369   0.73197   0.10659
H          H       0.14145   0.51645   0.66456   0.10576
H          H       0.52103   0.37321   0.75332   0.10540
H          H       0.62402   0.14024   0.54852   0.10661
H          H       0.84691   0.48338   0.67680   0.09870
H          H       0.57772   0.66841   0.00758   0.11839
H          H       0.33130   0.89906   0.82103   0.11598
H          H       0.11749   0.43498   0.90903   0.11554
H          H       0.43731   0.32737   0.81841   0.12037
H          H       0.68648   0.10845  -0.00100   0.11771
H          H       0.90384   0.56850   0.86874   0.11595
H          H       0.57627   0.62336   0.99516   0.10284
H          H       0.37779   0.94262   0.84504   0.10751
H          H       0.07219   0.43528   0.89626   0.10589
H          H       0.43717   0.37102   0.82969   0.10358
H          H       0.64092   0.06561   0.00950   0.10278
H          H       0.94971   0.56681   0.90422   0.09924
H          H       0.70685   0.56993   0.74211   0.05789
H          H       0.43135   0.14228   0.67768   0.05960
H          H       0.85453   0.29178   0.65930   0.06548
H          H       0.28943   0.43372   0.69928   0.05762
H          H       0.55732   0.85890   0.66549   0.06693
H          H       0.13423   0.70569   0.69593   0.06082
H          H       0.48844   0.66656   0.80487   0.06086
H          H       0.33666   0.82140   0.83825   0.05920
H          H       0.18782   0.51527   0.83071   0.06252
H          H       0.52337   0.33451   0.85335   0.06160
H          H       0.66953   0.17883   0.76152   0.06743
H          H       0.82274   0.48776   0.80707   0.05496
H          H       0.75244   0.58909   0.70352   0.09783
H          H       0.41014   0.17156   0.67014   0.10165
H          H       0.82823   0.24190   0.68495   0.10535
H          H       0.23797   0.41394   0.67197   0.10092
H          H       0.58133   0.83067   0.70272   0.10529
H          H       0.16001   0.75463   0.66136   0.10293
H          H       0.79426   0.58500   0.69569   0.11085
H          H       0.41548   0.21769   0.69403   0.11123
H          H       0.78253   0.19935   0.69318   0.11555
H          H       0.19761   0.41800   0.69941   0.10990
H          H       0.58081   0.78469   0.74293   0.11343
H          H       0.20622   0.79790   0.66635   0.11105
H          H       0.70832   0.50139   0.79216   0.11273
H          H       0.50402   0.20875   0.74345   0.11887
H          H       0.79609   0.29269   0.75698   0.11702
H          H       0.29612   0.50174   0.76225   0.11379
H          H       0.49611   0.79331   0.74627   0.11333
H          H       0.20641   0.70582   0.75777   0.11976
H          H       0.73228   0.47210   0.81526   0.10826
H          H       0.53644   0.26013   0.78939   0.11198
H          H       0.74597   0.27064   0.77299   0.11662
H          H       0.27800   0.53101   0.81038   0.11078
H          H       0.46865   0.74165   0.77105   0.11315
H          H       0.26071   0.72944   0.79606   0.11149
H          H       0.77471   0.46812   0.81489   0.10054
H          H       0.54261   0.30605   0.82855   0.09922
H          H       0.69996   0.22813   0.77767   0.10749
H          H       0.23771   0.53521   0.83731   0.10316
H          H       0.46699   0.69552   0.79671   0.10365
H          H       0.30799   0.77269   0.82204   0.10314
H          H       0.81873   0.55582   0.72531   0.11574
H          H       0.44837   0.26898   0.74762   0.11551
H          H       0.73311   0.17708   0.72028   0.11809
H          H       0.17942   0.44733   0.74753   0.11386
H          H       0.55441   0.73346   0.77946   0.11810
H          H       0.26136   0.82172   0.71535   0.12036
C          C       0.47329  -0.00005   0.27493  -0.00952
C          C       0.99818   0.47267   0.27037  -0.01060
C          C       0.52417   0.52602   0.26970  -0.00612
C          C       0.52572   0.00059   0.28650  -0.00237
C          C      -0.00003   0.52422   0.28759  -0.00599
C          C       0.47464   0.47481   0.29220  -0.00487
C          C       0.47403   0.50021   0.29135   0.02964
C          C       0.50040   0.97457   0.28475   0.03939
C          C       0.02532   0.52448   0.28185   0.04007
C          C       0.52452   0.50058   0.26864   0.03426
C          C       0.49870   0.02596   0.27768   0.04273
C          C       0.97308   0.47236   0.27901   0.03826
C          C       0.49946   0.52659   0.27857   0.03882
C          C       0.47383   0.97426   0.28401   0.04412
C          C       0.02440   0.49792   0.27259   0.03463
C          C       0.49936   0.47431   0.28381   0.03964
C          C       0.52541   0.02628   0.28069   0.03985
C          C       0.97433   0.49889   0.29185   0.03706
C          C       0.44894   0.49893   0.29817  -0.17082
C          C       0.50111   0.95031   0.27574  -0.17381
C          C       0.05002   0.55000   0.28396  -0.18644
C          C       0.54882   0.50145   0.25498  -0.17477
C          C       0.49733   0.05024   0.27826  -0.17520
C          C       0.94800   0.44693   0.27250  -0.18222
C          C       0.42342   0.47361   0.29874   0.07251
C          C       0.52643   0.95001   0.27607   0.06578
C          C       0.05028   0.57559   0.28360   0.07099
C          C       0.57429   0.52648   0.25127   0.07566
C          C       0.47102   0.05022   0.26473   0.07039
C          C       0.94656   0.42101   0.26471   0.05844
C          C       0.42459   0.44903   0.30483  -0.17620
C          C       0.55167   0.97546   0.28615  -0.18544
C          C       0.02522   0.57525   0.28378  -0.19122
C          C       0.57386   0.55122   0.25149  -0.17970
C          C       0.44587   0.02492   0.25701  -0.19157
C          C       0.97123   0.42148   0.25700  -0.18599
C          C       0.44982   0.44899   0.30242   0.08672
C          C       0.55170   0.00078   0.28893   0.08556
C          C       0.00020   0.55000   0.29047   0.08931
C          C       0.54937   0.55163   0.26097   0.09026
C          C       0.44676  -0.00046   0.26680   0.08713
C          C       0.99699   0.44673   0.25927   0.09090
C          C       0.45024   0.42371   0.30406  -0.18032
C          C       0.57683   0.02637   0.28846  -0.19036
C          C       0.97519   0.54982   0.29668  -0.18018
C          C       0.54988   0.57702   0.26811  -0.19527
C          C       0.42195   0.97383   0.27044  -0.18636
C          C       0.02210   0.44653   0.25655  -0.18396
C          C       0.47443   0.42305   0.29757   0.06216
C          C       0.57621   0.05128   0.27922   0.07634
C          C       0.95039   0.52524   0.30307   0.07400
C          C       0.52587   0.57766   0.27580   0.07113
C          C       0.42305   0.94879   0.28802   0.07009
C          C       0.04814   0.47093   0.26507   0.07473
C          C       0.49897   0.44886   0.29059  -0.17727
C          C       0.55020   0.05078   0.27286  -0.17436
C          C       0.95093   0.50003   0.30451  -0.17482
C          C       0.50058   0.55224   0.27726  -0.18576
C          C       0.44948   0.94972   0.29597  -0.17511
C          C       0.04831   0.49639   0.26815  -0.17031
C          C       0.52720   0.60439   0.28797   0.06330
C          C       0.39730   0.92197   0.29477   0.05712
C          C       0.07525   0.47035   0.27775   0.06010
C          C       0.47461   0.39661   0.29483   0.06236
C          C       0.60236   0.07771   0.27583   0.05686
C          C       0.92353   0.52512   0.29982   0.06340
C          C       0.39584   0.47361   0.28381   0.06480
C          C       0.52576   0.92352   0.26435   0.06229
C          C       0.07691   0.60195   0.28219   0.06207
C          C       0.60091   0.52584   0.25714   0.06283
C          C       0.47110   0.07707   0.25862   0.06281
C          C       0.91982   0.39468   0.26546   0.06635
C          C       0.62184   0.54860   0.19795  -0.12239
C          C       0.44579   0.08242   0.11746  -0.12253
C          C       0.91702   0.36877   0.24498  -0.11995
C          C       0.36581   0.45141   0.19138  -0.11819
C          C       0.54973   0.92299   0.25003  -0.12380
C          C       0.07235   0.62376   0.15874  -0.12898
C          C       0.64721   0.54812   0.20689  -0.17200
C          C       0.44652   0.10813   0.10821  -0.18199
C          C       0.89189   0.34395   0.24281  -0.16890
C          C       0.33932   0.45139   0.16923  -0.17389
C          C       0.54997   0.89830   0.24583  -0.16789
C          C       0.09735   0.64817   0.15140  -0.17529
C          C       0.65297   0.52465   0.27737   0.20479
C          C       0.47269   0.12942   0.24146   0.19975
C          C       0.86772   0.34374   0.25823   0.19915
C          C       0.34168   0.47387   0.23727   0.20304
C          C       0.52577   0.87250   0.25410   0.18884
C          C       0.12831   0.65181   0.27163   0.20668
C          C       0.63228   0.50196   0.33770  -0.14877
C          C       0.49825   0.12424   0.38122  -0.14967
C          C       0.87047   0.36934   0.28132  -0.14810
C          C       0.37149   0.49641   0.32438  -0.14548
C          C       0.50183   0.87277   0.26896  -0.15464
C          C       0.13304   0.63006   0.39542  -0.15266
C          C       0.60694   0.50257   0.32828  -0.12575
C          C       0.49734   0.09858   0.38911  -0.12830
C          C       0.89582   0.39414   0.28489  -0.13290
C          C       0.39799   0.49613   0.34907  -0.12954
C          C       0.50182   0.89761   0.27316  -0.12543
C          C       0.10790   0.60576   0.40127  -0.12403
C          C       0.50060   0.60915   0.18350  -0.12788
C          C       0.39452   0.89643   0.26738  -0.12265
C          C       0.09567   0.49254   0.21281  -0.12130
C          C       0.49831   0.39601   0.27783  -0.12398
C          C       0.59726   0.09921   0.15168  -0.12435
C          C       0.89403   0.50162   0.23644  -0.11869
C          C       0.50227   0.63457   0.19516  -0.17864
C          C       0.36911   0.87135   0.25956  -0.17483
C          C       0.12088   0.49160   0.22269  -0.17533
C          C       0.49850   0.37124   0.27434  -0.17044
C          C       0.62222   0.12381   0.14685  -0.18255
C          C       0.86832   0.50166   0.22645  -0.17616
C          C       0.53076   0.65624   0.31286   0.20563
C          C       0.34482   0.87057   0.27708   0.19927
C          C       0.12700   0.46846   0.30074   0.20288
C          C       0.47479   0.34554   0.28840   0.19583
C          C       0.65318   0.12768   0.26952   0.20561
C          C       0.87086   0.52562   0.27716   0.20738
C          C       0.55754   0.65160   0.41644  -0.15254
C          C       0.34752   0.89592   0.30623  -0.14335
C          C       0.10682   0.44639   0.36760  -0.15369
C          C       0.45081   0.34590   0.30257  -0.14841
C          C       0.65835   0.10604   0.39207  -0.15378
C          C       0.90007   0.54930   0.33720  -0.14616
C          C       0.55561   0.62615   0.40513  -0.12959
C          C       0.37333   0.92080   0.31794  -0.12866
C          C       0.08165   0.44737   0.35741  -0.12526
C          C       0.45088   0.37072   0.30704  -0.12962
C          C       0.63335   0.08166   0.39676  -0.12211
C          C       0.92576   0.54886   0.35076  -0.12488
C          C       0.70048   0.54257   0.27033   0.07741
C          C       0.45200   0.15939   0.19949   0.07071
C          C       0.83420   0.29588   0.21427   0.06527
C          C       0.29126   0.45404   0.20711   0.06556
C          C       0.54086   0.84290   0.20894   0.07915
C          C       0.15560   0.69944   0.23551   0.07228
C          C       0.72446   0.53967   0.26246   0.06705
C          C       0.45456   0.18682   0.19975   0.05863
C          C       0.80732   0.27132   0.22239   0.05890
C          C       0.26613   0.45577   0.20904   0.05835
C          C       0.53935   0.81562   0.22137   0.05801
C          C       0.18239   0.72425   0.22761   0.05796
C          C       0.51247   0.68591   0.31387   0.07633
C          C       0.31659   0.82235   0.29163   0.06377
C          C       0.17556   0.48660   0.30919   0.07693
C          C       0.49507   0.31617   0.30583   0.07215
C          C       0.68038   0.17565   0.26091   0.07800
C          C       0.82320   0.50673   0.28282   0.06853
C          C       0.74881   0.56387   0.23517  -0.14286
C          C       0.42880   0.18905   0.18026  -0.14342
C          C       0.80358   0.24458   0.20611  -0.13934
C          C       0.23828   0.43119   0.18788  -0.14243
C          C       0.56375   0.81346   0.22098  -0.13470
C          C       0.18233   0.75054   0.20163  -0.13668
C          C       0.77220   0.56226   0.22901  -0.12888
C          C       0.43117   0.21446   0.19341  -0.13082
C          C       0.77840   0.22093   0.21153  -0.12942
C          C       0.21485   0.43209   0.19877  -0.13590
C          C       0.56412   0.78821   0.24589  -0.13122
C          C       0.20770   0.77462   0.20190  -0.13055
C          C       0.77292   0.53635   0.25254   0.07798
C          C       0.45956   0.23913   0.22638   0.07104
C          C       0.75525   0.22270   0.23001   0.07919
C          C       0.21809   0.45761   0.23425   0.07574
C          C       0.53946   0.76349   0.26569   0.07292
C          C       0.23472   0.77391   0.22945   0.07732
C          C       0.74831   0.51174   0.27870   0.07663
C          C       0.48546   0.23705   0.24168   0.07615
C          C       0.75876   0.24958   0.24616   0.07499
C          C       0.24601   0.48260   0.25297   0.07995
C          C       0.51419   0.76541   0.25945   0.07441
C          C       0.23473   0.74734   0.25280   0.07839
C          C       0.72445   0.51407   0.28220  -0.14452
C          C       0.48219   0.21076   0.22628  -0.14694
C          C       0.78511   0.27339   0.24328  -0.16479
C          C       0.26936   0.48101   0.23904  -0.13941
C          C       0.51510   0.79170   0.24050  -0.15333
C          C       0.20830   0.72301   0.25031  -0.15757
C          C       0.74932   0.48593   0.30333  -0.13362
C          C       0.51391   0.26166   0.27599  -0.12852
C          C       0.73529   0.25114   0.26243  -0.12474
C          C       0.24940   0.50819   0.28790  -0.13639
C          C       0.48913   0.74063   0.27356  -0.12986
C          C       0.26195   0.74661   0.28353  -0.12975
C          C       0.77337   0.48458   0.30335  -0.15000
C          C       0.51676   0.28689   0.29776  -0.14094
C          C       0.70976   0.22743   0.26380  -0.14471
C          C       0.22656   0.50915   0.30482  -0.13941
C          C       0.48897   0.71530   0.29227  -0.13985
C          C       0.28796   0.77083   0.29508  -0.13975
C          C       0.79773   0.50886   0.27713   0.06621
C          C       0.49125   0.28911   0.28282   0.06196
C          C       0.70660   0.20088   0.25120   0.05078
C          C       0.19903   0.48452   0.28938   0.06001
C          C       0.51392   0.71321   0.29932   0.05434
C          C       0.28818   0.79718   0.27306   0.06076
C          C       0.79709   0.53423   0.25209  -0.13767
C          C       0.46306   0.26536   0.24634  -0.14947
C          C       0.72911   0.19892   0.23344  -0.16333
C          C       0.19516   0.45925   0.25360  -0.13635
C          C       0.53875   0.73725   0.28687  -0.14841
C          C       0.26153   0.79831   0.23833  -0.15309
C          C       0.47607   0.00120   0.77260  -0.00629
C          C       0.00198   0.47465   0.76865  -0.00677
C          C       0.52616   0.52698   0.76969  -0.01103
C          C       0.52845   0.00142   0.78615  -0.01140
C          C       0.00177   0.52507   0.78797  -0.00547
C          C       0.47728   0.47508   0.79011  -0.00667
C          C       0.47609   0.50010   0.79056   0.03319
C          C       0.50263   0.97555   0.78066   0.04634
C          C       0.02747   0.52638   0.78027   0.03696
C          C       0.52714   0.50192   0.76690   0.03992
C          C       0.50160   0.02711   0.77462   0.04385
C          C       0.97651   0.47329   0.77979   0.03923
C          C       0.50132   0.52686   0.78096   0.04103
C          C       0.47610   0.97533   0.77973   0.03982
C          C       0.02756   0.50042   0.76941   0.03131
C          C       0.50239   0.47525   0.78225   0.03743
C          C       0.52830   0.02725   0.77819   0.03977
C          C       0.97656   0.49928   0.79243   0.03895
C          C       0.45069   0.49825   0.79624  -0.17325
C          C       0.50306   0.95119   0.77133  -0.17162
C          C       0.05148   0.55233   0.78003  -0.18424
C          C       0.55169   0.50352   0.75208  -0.17475
C          C       0.50060   0.05153   0.77734  -0.17825
C          C       0.95225   0.44735   0.77570  -0.17547
C          C       0.42533   0.47268   0.79588   0.07550
C          C       0.52866   0.95057   0.77843   0.06238
C          C       0.05070   0.57746   0.77776   0.06873
C          C       0.57676   0.52899   0.74803   0.07284
C          C       0.47453   0.05171   0.76604   0.07221
C          C       0.95180   0.42201   0.76545   0.06569
C          C       0.42693   0.44841   0.80035  -0.18111
C          C       0.55458   0.97579   0.79491  -0.18904
C          C       0.02529   0.57613   0.77945  -0.19221
C          C       0.57574   0.55331   0.75075  -0.17766
C          C       0.44942   0.02650   0.75967  -0.18755
C          C       0.97679   0.42360   0.75564  -0.17863
C          C       0.45256   0.44901   0.79852   0.08888
C          C       0.55475   0.00130   0.79478   0.08282
C          C       0.00109   0.55039   0.78995   0.09262
C          C       0.55099   0.55293   0.76160   0.08992
C          C       0.44990   0.00101   0.76763   0.08508
C          C       0.00185   0.44935   0.75624   0.08636
C          C       0.45359   0.42409   0.79942  -0.18485
C          C       0.58029   0.02681   0.79777  -0.18645
C          C       0.97586   0.54938   0.79787  -0.18130
C          C       0.55096   0.57794   0.77082  -0.19468
C          C       0.42506   0.97546   0.77323  -0.18418
C          C       0.02714   0.45020   0.74915  -0.17099
C          C       0.47834   0.42407   0.79591   0.06281
C          C       0.57976   0.05193   0.78447   0.07279
C          C       0.95145   0.52448   0.80492   0.07354
C          C       0.52684   0.57789   0.78131   0.07146
C          C       0.42550   0.95017   0.78825   0.06999
C          C       0.05257   0.47518   0.75551   0.06854
C          C       0.50274   0.45011   0.79035  -0.17884
C          C       0.55333   0.05164   0.77117  -0.17572
C          C       0.95264   0.49964   0.80453  -0.17635
C          C       0.50204   0.55216   0.78391  -0.18162
C          C       0.45153   0.95086   0.79138  -0.17452
C          C       0.05183   0.50007   0.76157  -0.16992
C          C       0.52729   0.60422   0.79212   0.06385
C          C       0.39943   0.92363   0.79622   0.05962
C          C       0.08002   0.47566   0.76513   0.06352
C          C       0.47898   0.39782   0.79492   0.05401
C          C       0.60640   0.07829   0.78337   0.06156
C          C       0.92468   0.52441   0.80275   0.06388
C          C       0.39778   0.47255   0.78242   0.05691
C          C       0.52730   0.92379   0.76595   0.06109
C          C       0.07666   0.60424   0.77338   0.06248
C          C       0.60375   0.52939   0.75186   0.06616
C          C       0.47457   0.07839   0.76245   0.06217
C          C       0.92565   0.39505   0.76569   0.05767
C          C       0.62429   0.55277   0.69305  -0.12747
C          C       0.44891   0.08342   0.62406  -0.12299
C          C       0.92356   0.36969   0.74060  -0.12341
C          C       0.36764   0.45038   0.69219  -0.11684
C          C       0.55094   0.92265   0.75154  -0.12158
C          C       0.07129   0.62580   0.65007  -0.13031
C          C       0.65014   0.55326   0.70164  -0.17355
C          C       0.44929   0.10884   0.61750  -0.17851
C          C       0.89888   0.34435   0.73830  -0.16989
C          C       0.34133   0.45086   0.66914  -0.17537
C          C       0.55047   0.89762   0.74686  -0.17137
C          C       0.09588   0.65053   0.64105  -0.17690
C          C       0.65662   0.53012   0.76936   0.19819
C          C       0.47545   0.13014   0.75013   0.20360
C          C       0.87467   0.34293   0.76037   0.19830
C          C       0.34400   0.47371   0.73492   0.20619
C          C       0.52578   0.87209   0.75350   0.19344
C          C       0.12709   0.65473   0.75954   0.20125
C          C       0.63643   0.50694   0.83091  -0.14412
C          C       0.50141   0.12534   0.88642  -0.14859
C          C       0.87685   0.36807   0.78781  -0.14430
C          C       0.37399   0.49600   0.82226  -0.14429
C          C       0.50212   0.87300   0.76777  -0.15194
C          C       0.13254   0.63327   0.88417  -0.14912
C          C       0.61080   0.50668   0.82353  -0.11780
C          C       0.50085   0.09991   0.89250  -0.13384
C          C       0.90158   0.39341   0.79009  -0.13107
C          C       0.40023   0.49533   0.84677  -0.12559
C          C       0.50300   0.89817   0.77451  -0.12559
C          C       0.10788   0.60861   0.89139  -0.12417
C          C       0.50022   0.60824   0.68432  -0.12018
C          C       0.39590   0.89764   0.77069  -0.12180
C          C       0.10073   0.49876   0.70663  -0.12459
C          C       0.50266   0.39731   0.77721  -0.12348
C          C       0.60223   0.09995   0.65703  -0.12522
C          C       0.89513   0.50104   0.74219  -0.11790
C          C       0.50098   0.63338   0.69200  -0.18481
C          C       0.36994   0.87299   0.76193  -0.17867
C          C       0.12680   0.49893   0.72002  -0.17861
C          C       0.50305   0.37257   0.77567  -0.17317
C          C       0.62771   0.12424   0.65373  -0.17470
C          C       0.86949   0.50170   0.72895  -0.17823
C          C       0.52897   0.65544   0.80936   0.20711
C          C       0.34580   0.87306   0.77631   0.19970
C          C       0.13308   0.47576   0.79189   0.20140
C          C       0.47941   0.34690   0.79082   0.19522
C          C       0.65845   0.12753   0.77760   0.20243
C          C       0.87214   0.52617   0.77335   0.21226
C          C       0.55616   0.65145   0.91662  -0.15230
C          C       0.34943   0.89888   0.80485  -0.14069
C          C       0.11246   0.45269   0.85087  -0.14609
C          C       0.45552   0.34717   0.80644  -0.15004
C          C       0.66272   0.10580   0.90316  -0.15675
C          C       0.90159   0.54961   0.83287  -0.15157
C          C       0.55519   0.62629   0.90925  -0.13148
C          C       0.37566   0.92333   0.81717  -0.13423
C          C       0.08679   0.45279   0.84008  -0.12142
C          C       0.45562   0.37196   0.81121  -0.12341
C          C       0.63724   0.08189   0.90743  -0.12327
C          C       0.92718   0.54855   0.85049  -0.12262
C          C       0.70385   0.54851   0.75521   0.06875
C          C       0.45442   0.15993   0.70792   0.06675
C          C       0.84175   0.29482   0.71439   0.06915
C          C       0.29393   0.45510   0.70873   0.06940
C          C       0.54028   0.84194   0.71057   0.07530
C          C       0.15376   0.70252   0.71911   0.06999
C          C       0.72790   0.54526   0.75058   0.06356
C          C       0.45721   0.18746   0.70780   0.05975
C          C       0.81504   0.27006   0.72264   0.05780
C          C       0.26974   0.45795   0.71477   0.05632
C          C       0.53848   0.81455   0.72335   0.06083
C          C       0.18064   0.72738   0.71200   0.05427
C          C       0.50947   0.68452   0.80425   0.07150
C          C       0.31632   0.82508   0.79137   0.06898
C          C       0.18251   0.49420   0.80777   0.06653
C          C       0.49958   0.31736   0.81002   0.06895
C          C       0.68728   0.17528   0.76131   0.07180
C          C       0.82453   0.50884   0.77786   0.07070
C          C       0.75247   0.56901   0.72309  -0.14675
C          C       0.43186   0.19013   0.69103  -0.14162
C          C       0.81105   0.24334   0.70442  -0.14508
C          C       0.24161   0.43405   0.69802  -0.14159
C          C       0.56252   0.81207   0.72077  -0.13273
C          C       0.18057   0.75373   0.68275  -0.14105
C          C       0.77580   0.56686   0.71979  -0.13131
C          C       0.43473   0.21573   0.70429  -0.12946
C          C       0.78564   0.21974   0.70836  -0.12720
C          C       0.21913   0.43618   0.71227  -0.13366
C          C       0.56230   0.78664   0.74265  -0.12755
C          C       0.20624   0.77779   0.68628  -0.12838
C          C       0.77588   0.54065   0.74398   0.07285
C          C       0.46313   0.24017   0.73452   0.07467
C          C       0.76257   0.22147   0.72795   0.07388
C          C       0.22354   0.46235   0.74557   0.07623
C          C       0.53741   0.76211   0.76173   0.07458
C          C       0.23359   0.77701   0.71973   0.07968
C          C       0.75084   0.51646   0.76915   0.07929
C          C       0.48863   0.23767   0.74740   0.07576
C          C       0.76634   0.24846   0.74467   0.07917
C          C       0.25194   0.48662   0.76312   0.07640
C          C       0.51261   0.76439   0.75927   0.07276
C          C       0.23342   0.75034   0.74395   0.07728
C          C       0.72726   0.51938   0.77116  -0.13981
C          C       0.48491   0.21117   0.73208  -0.15041
C          C       0.79281   0.27218   0.74311  -0.17021
C          C       0.27433   0.48372   0.74651  -0.13429
C          C       0.51409   0.79086   0.74322  -0.15166
C          C       0.20678   0.72606   0.73878  -0.15376
C          C       0.75098   0.49030   0.79353  -0.13141
C          C       0.51723   0.26206   0.78040  -0.12992
C          C       0.74290   0.25020   0.75985  -0.13327
C          C       0.25652   0.51280   0.79741  -0.13201
C          C       0.48730   0.73978   0.77264  -0.13189
C          C       0.26079   0.74953   0.77816  -0.12944
C          C       0.77459   0.48816   0.79399  -0.14405
C          C       0.52058   0.28752   0.80198  -0.13948
C          C       0.71739   0.22659   0.76150  -0.13529
C          C       0.23406   0.51510   0.81131  -0.14713
C          C       0.48653   0.71423   0.78769  -0.14153
C          C       0.28705   0.77363   0.79279  -0.13956
C          C       0.79946   0.51199   0.76948   0.06422
C          C       0.49543   0.29014   0.78822   0.06027
C          C       0.71393   0.19983   0.74987   0.05011
C          C       0.20590   0.49117   0.79371   0.06347
C          C       0.51114   0.71188   0.79220   0.05828
C          C       0.28754   0.80013   0.77045   0.06031
C          C       0.79965   0.53776   0.74395  -0.13792
C          C       0.46717   0.26659   0.75456  -0.14766
C          C       0.73634   0.19766   0.73216  -0.15792
C          C       0.20117   0.46534   0.76181  -0.14189
C          C       0.53604   0.73567   0.77908  -0.15190
C          C       0.26074   0.80139   0.73223  -0.15771
N          N       0.67668   0.52139   0.28289  -0.29609
N          N       0.47574   0.15594   0.24118  -0.27592
N          N       0.84155   0.32017   0.26097  -0.29422
N          N       0.31689   0.47598   0.22598  -0.28590
N          N       0.52353   0.84632   0.25433  -0.30253
N          N       0.15480   0.67510   0.26982  -0.28630
N          N       0.53443   0.68272   0.32104  -0.28206
N          N       0.31767   0.84671   0.26355  -0.28306
N          N       0.15035   0.46516   0.30149  -0.29265
N          N       0.47169   0.31946   0.27587  -0.28823
N          N       0.67921   0.15164   0.27030  -0.27869
N          N       0.84656   0.52830   0.26774  -0.28503
N          N       0.68061   0.52744   0.77382  -0.28745
N          N       0.47826   0.15649   0.75050  -0.27657
N          N       0.84912   0.31880   0.76582  -0.29480
N          N       0.31960   0.47650   0.72354  -0.29210
N          N       0.52297   0.84566   0.75371  -0.30307
N          N       0.15331   0.67839   0.75728  -0.28269
N          N       0.53197   0.68169   0.81519  -0.28168
N          N       0.31805   0.84969   0.76017  -0.28396
N          N       0.15678   0.47287   0.79504  -0.28251
N          N       0.47637   0.32082   0.78030  -0.28562
N          N       0.68507   0.15067   0.77694  -0.27976
N          N       0.84806   0.52968   0.76014  -0.28797

