data_crystal

_audit_creation_method 'AiiDA-DDEC plugin'

_cell_length_a        61.79791
_cell_length_b        33.54534
_cell_length_c        33.14318

_cell_angle_alpha     90.22848
_cell_angle_beta     90.05535
_cell_angle_gamma     90.22777

_symmetry_space_group_name_Hall 'P 1'
_symmetry_space_group_name_H-M  'P 1'

loop_
_symmetry_equiv_pos_as_xyz
 'x,y,z'

loop_
_atom_site_label
_atom_site_type_symbol
_atom_site_fract_x
_atom_site_fract_y
_atom_site_fract_z
_atom_site_charge
H          H       0.73018   0.40345   0.40340   0.13280
H          H       0.26961   0.59375   0.90266   0.13168
H          H       0.73111   0.56150   0.90144   0.13131
H          H       0.26776   0.40494   0.40358   0.13277
H          H       0.75540   0.41087   0.42881   0.13141
H          H       0.24453   0.59182   0.92936   0.13170
H          H       0.74151   0.60835   0.91617   0.13557
H          H       0.24289   0.41203   0.43008   0.13154
H          H       0.74030   0.45208   0.41177   0.13250
H          H       0.25745   0.54735   0.91444   0.13343
H          H       0.75631   0.56485   0.92772   0.12945
H          H       0.25772   0.45345   0.41221   0.13227
H          H       0.75508   0.45862   0.57099   0.13226
H          H       0.24685   0.53927   0.07261   0.13752
H          H       0.75462   0.53881   0.07183   0.13386
H          H       0.24536   0.46171   0.57190   0.13642
H          H       0.74851   0.41042   0.58791   0.13367
H          H       0.25005   0.58983   0.08571   0.13286
H          H       0.74918   0.58791   0.08753   0.13204
H          H       0.25138   0.41307   0.58829   0.13345
H          H       0.73149   0.45079   0.60102   0.13177
H          H       0.26939   0.55469   0.10257   0.13102
H          H       0.73130   0.54899   0.10165   0.13148
H          H       0.26911   0.45277   0.60113   0.13175
H          H       0.66340   0.39878   0.48001   0.12985
H          H       0.33609   0.60634   0.98128   0.13090
H          H       0.66165   0.55052   0.99781   0.13387
H          H       0.33447   0.39013   0.48987   0.13235
H          H       0.66105   0.44515   0.50478   0.13391
H          H       0.33894   0.55711   0.99859   0.13438
H          H       0.66376   0.59027   0.03274   0.13504
H          H       0.33765   0.44189   0.48371   0.13543
H          H       0.66421   0.40144   0.53368   0.13482
H          H       0.33638   0.59640   0.03398   0.13476
H          H       0.66426   0.59962   0.97992   0.13147
H          H       0.33685   0.42119   0.53304   0.13132
H          H       0.67831   0.48436   0.56601   0.11420
H          H       0.32309   0.51710   0.06229   0.11422
H          H       0.67815   0.51172   0.06340   0.11415
H          H       0.32067   0.48936   0.56470   0.11552
H          H       0.65637   0.48493   0.62929   0.11478
H          H       0.34507   0.51403   0.12548   0.11456
H          H       0.65594   0.50939   0.12629   0.11492
H          H       0.34235   0.49223   0.62838   0.11497
H          H       0.68610   0.37516   0.66564   0.10891
H          H       0.31461   0.62117   0.16789   0.10881
H          H       0.68511   0.61936   0.16582   0.10838
H          H       0.31469   0.38029   0.66500   0.10923
H          H       0.70728   0.37376   0.60185   0.11570
H          H       0.29322   0.62495   0.10448   0.11574
H          H       0.70674   0.62219   0.10269   0.11607
H          H       0.29377   0.37680   0.60093   0.11530
H          H       0.68841   0.35207   0.43316   0.11658
H          H       0.31163   0.65003   0.93375   0.11590
H          H       0.69266   0.64517   0.92893   0.11513
H          H       0.31308   0.35561   0.43456   0.11590
H          H       0.66585   0.34607   0.37111   0.10870
H          H       0.33444   0.65581   0.87226   0.10892
H          H       0.67012   0.65062   0.86685   0.10913
H          H       0.33551   0.35107   0.37242   0.10888
H          H       0.69255   0.47884   0.41617   0.11437
H          H       0.30650   0.52354   0.91478   0.11534
H          H       0.69039   0.51744   0.91955   0.11248
H          H       0.30270   0.48018   0.41241   0.11300
H          H       0.67030   0.47259   0.35324   0.11488
H          H       0.32906   0.52952   0.85237   0.11411
H          H       0.66831   0.52295   0.85630   0.11477
H          H       0.32492   0.47551   0.34944   0.11571
H          H       0.83665   0.57777   0.55062   0.11561
H          H       0.16373   0.42299   0.04890   0.11485
H          H       0.83409   0.42185   0.05280   0.11562
H          H       0.16341   0.57909   0.55044   0.11417
H          H       0.81646   0.51313   0.55450   0.11432
H          H       0.18438   0.48710   0.05420   0.11324
H          H       0.81243   0.48454   0.05738   0.11259
H          H       0.18375   0.51478   0.55497   0.11178
H          H       0.81835   0.58864   0.42603   0.10456
H          H       0.17823   0.41741   0.92227   0.10398
H          H       0.83006   0.42654   0.92345   0.10524
H          H       0.17973   0.58710   0.42475   0.10420
H          H       0.79842   0.52414   0.42984   0.11671
H          H       0.19838   0.48155   0.92733   0.11491
H          H       0.80803   0.48828   0.92805   0.11523
H          H       0.19961   0.52286   0.42911   0.11508
H          H       0.76746   0.53480   0.48952   0.12999
H          H       0.23130   0.46690   0.00523   0.13287
H          H       0.77054   0.46655   0.00250   0.13105
H          H       0.23246   0.53560   0.50502   0.13355
H          H       0.74806   0.51002   0.52016   0.13816
H          H       0.25550   0.49602   0.00862   0.13350
H          H       0.74633   0.49423   0.01116   0.13462
H          H       0.25623   0.50547   0.50532   0.13359
H          H       0.74694   0.50430   0.46744   0.13293
H          H       0.24366   0.48558   0.96115   0.13162
H          H       0.75614   0.48765   0.96165   0.13686
H          H       0.24295   0.51631   0.45946   0.13122
H          H       0.83714   0.46773   0.47180   0.13452
H          H       0.16025   0.53398   0.00666   0.13225
H          H       0.83948   0.53887   0.97795   0.13232
H          H       0.16170   0.46941   0.47704   0.13372
H          H       0.83998   0.41593   0.48231   0.13311
H          H       0.16219   0.56123   0.96142   0.13821
H          H       0.84035   0.59167   0.98425   0.13245
H          H       0.15910   0.41683   0.48304   0.13516
H          H       0.84056   0.45144   0.52188   0.12990
H          H       0.15910   0.58698   0.00761   0.13123
H          H       0.84088   0.56003   0.02674   0.13379
H          H       0.15890   0.44877   0.52556   0.12937
H          H       0.75012   0.36078   0.52451   0.13175
H          H       0.24911   0.64072   0.03084   0.13108
H          H       0.74746   0.64102   0.00236   0.13185
H          H       0.24810   0.36302   0.53109   0.13174
H          H       0.77600   0.33727   0.52292   0.13151
H          H       0.22491   0.66618   0.01723   0.13078
H          H       0.76550   0.65191   0.04256   0.13193
H          H       0.22341   0.33739   0.52035   0.13192
H          H       0.76115   0.34519   0.47808   0.13491
H          H       0.24377   0.65123   0.97987   0.13673
H          H       0.77234   0.66656   0.99318   0.13199
H          H       0.24161   0.35000   0.48106   0.13546
H          H       0.80305   0.34361   0.44506   0.11626
H          H       0.19211   0.65281   0.94255   0.11608
H          H       0.80929   0.65170   0.94210   0.11648
H          H       0.19841   0.34022   0.45118   0.11654
H          H       0.82701   0.28375   0.44862   0.11642
H          H       0.16937   0.71428   0.94786   0.11560
H          H       0.83210   0.71352   0.94634   0.11670
H          H       0.17536   0.27909   0.45719   0.11671
H          H       0.84916   0.32152   0.56563   0.10480
H          H       0.15974   0.69141   0.07404   0.10636
H          H       0.83970   0.69561   0.07384   0.10672
H          H       0.14945   0.32405   0.56867   0.10576
H          H       0.82503   0.38064   0.56246   0.11562
H          H       0.18247   0.63046   0.06880   0.11483
H          H       0.81697   0.63425   0.06967   0.11486
H          H       0.17289   0.38416   0.56333   0.11525
H          H       0.45629   0.61685   0.63229   0.11283
H          H       0.54432   0.38179   0.13188   0.11345
H          H       0.45511   0.38716   0.13465   0.11234
H          H       0.54619   0.61353   0.63102   0.11295
H          H       0.42840   0.62368   0.68526   0.11020
H          H       0.57190   0.37725   0.18570   0.10703
H          H       0.42724   0.38297   0.18802   0.11025
H          H       0.57387   0.61833   0.68481   0.10677
H          H       0.42665   0.50765   0.59206   0.11350
H          H       0.57343   0.49040   0.08988   0.11371
H          H       0.42650   0.49532   0.09111   0.11307
H          H       0.57296   0.50192   0.59194   0.11362
H          H       0.39872   0.51419   0.64508   0.10776
H          H       0.60099   0.48629   0.14393   0.10695
H          H       0.39845   0.49112   0.14435   0.10727
H          H       0.60052   0.50613   0.64612   0.10729
H          H       0.36998   0.53634   0.32825   0.10761
H          H       0.62920   0.45621   0.82869   0.10858
H          H       0.36896   0.46604   0.82901   0.10921
H          H       0.63021   0.53676   0.32824   0.10923
H          H       0.34690   0.53836   0.26708   0.11384
H          H       0.65302   0.45526   0.76845   0.11382
H          H       0.34565   0.46532   0.76799   0.11406
H          H       0.65344   0.53866   0.26725   0.11324
H          H       0.36922   0.54571   0.66685   0.10277
H          H       0.63072   0.45496   0.16677   0.10183
H          H       0.36798   0.45465   0.16438   0.10363
H          H       0.63056   0.53480   0.66862   0.10100
H          H       0.34310   0.54388   0.72327   0.11873
H          H       0.65700   0.45674   0.22305   0.11802
H          H       0.34084   0.45624   0.21947   0.11943
H          H       0.65665   0.53309   0.72511   0.11753
H          H       0.13089   0.67438   0.44608   0.11102
H          H       0.86255   0.31933   0.94582   0.11155
H          H       0.12763   0.33178   0.94309   0.11178
H          H       0.87528   0.66100   0.44798   0.11193
H          H       0.10571   0.73072   0.44651   0.10792
H          H       0.88858   0.26461   0.94302   0.10862
H          H       0.10305   0.27383   0.94306   0.10959
H          H       0.90070   0.71795   0.44494   0.10992
H          H       0.10562   0.73093   0.57648   0.11118
H          H       0.90002   0.27629   0.07072   0.10996
H          H       0.10809   0.26610   0.07221   0.11116
H          H       0.88700   0.74611   0.56900   0.11077
H          H       0.13075   0.67312   0.57576   0.12101
H          H       0.87425   0.33285   0.07306   0.12140
H          H       0.13283   0.32489   0.07229   0.12145
H          H       0.86141   0.68869   0.57199   0.12222
H          H       0.10108   0.79577   0.45730   0.10893
H          H       0.89812   0.20337   0.95346   0.10747
H          H       0.10153   0.20417   0.95343   0.11081
H          H       0.90137   0.79153   0.44755   0.10864
H          H       0.07334   0.84836   0.45332   0.11449
H          H       0.92582   0.15090   0.94922   0.11331
H          H       0.07406   0.15025   0.95046   0.11441
H          H       0.92887   0.84550   0.44484   0.11415
H          H       0.47797   0.51307   0.35377   0.13933
H          H       0.52086   0.47973   0.85252   0.13658
H          H       0.47727   0.48210   0.85358   0.13570
H          H       0.52151   0.51216   0.35330   0.13575
H          H       0.58273   0.55552   0.46099   0.12418
H          H       0.41691   0.44033   0.96232   0.12811
H          H       0.58107   0.43215   0.95926   0.12731
H          H       0.41810   0.55863   0.46166   0.12740
H          H       0.58282   0.56391   0.54184   0.12795
H          H       0.41720   0.43307   0.04330   0.12837
H          H       0.58154   0.42584   0.04033   0.12591
H          H       0.41831   0.56810   0.54241   0.12629
H          H       0.57706   0.49172   0.42071   0.11191
H          H       0.42331   0.50559   0.92195   0.11230
H          H       0.57585   0.49901   0.92010   0.11245
H          H       0.42307   0.49355   0.42120   0.11171
H          H       0.53984   0.58420   0.36467   0.11339
H          H       0.45802   0.40980   0.86543   0.11354
H          H       0.53874   0.40600   0.86298   0.11389
H          H       0.46065   0.58620   0.36552   0.11276
H          H       0.47894   0.55411   0.65757   0.13491
H          H       0.52217   0.44658   0.15629   0.13739
H          H       0.47861   0.44909   0.15729   0.13419
H          H       0.52248   0.55145   0.65709   0.13750
H          H       0.66025   0.40691   0.71059   0.07221
H          H       0.34025   0.58803   0.21127   0.07109
H          H       0.65943   0.58674   0.20954   0.07105
H          H       0.33928   0.41472   0.71056   0.07171
H          H       0.42545   0.45614   0.75396   0.11001
H          H       0.57350   0.53927   0.25298   0.11079
H          H       0.42681   0.54502   0.25378   0.10977
H          H       0.57324   0.44952   0.75156   0.10860
H          H       0.40214   0.45681   0.69289   0.12008
H          H       0.59678   0.53987   0.19201   0.11920
H          H       0.40363   0.54644   0.19265   0.11697
H          H       0.59715   0.44965   0.69141   0.11887
H          H       0.43513   0.58740   0.30809   0.11120
H          H       0.56444   0.40530   0.80580   0.11179
H          H       0.43236   0.41068   0.80807   0.11183
H          H       0.56532   0.58516   0.30715   0.11161
H          H       0.39738   0.49477   0.36369   0.10994
H          H       0.60171   0.49823   0.86291   0.10941
H          H       0.39760   0.50670   0.86441   0.11232
H          H       0.60272   0.49281   0.36319   0.10916
H          H       0.41634   0.41505   0.24850   0.10893
H          H       0.58410   0.59277   0.74552   0.10579
H          H       0.41707   0.59762   0.74576   0.10487
H          H       0.58278   0.40473   0.24606   0.10633
H          H       0.38899   0.41524   0.30307   0.10993
H          H       0.61074   0.59285   0.80139   0.11198
H          H       0.39057   0.59744   0.80165   0.11227
H          H       0.60945   0.40496   0.30176   0.11242
H          H       0.11674   0.12249   0.43764   0.10802
H          H       0.87504   0.89256   0.94769   0.10950
H          H       0.10541   0.86143   0.92557   0.11139
H          H       0.89555   0.14058   0.42472   0.11036
H          H       0.14189   0.17978   0.43769   0.12133
H          H       0.84995   0.83464   0.94552   0.12302
H          H       0.13085   0.80397   0.92490   0.12201
H          H       0.86972   0.19723   0.42239   0.12297
H          H       0.09441   0.15785   0.55568   0.10655
H          H       0.91819   0.82608   0.02380   0.10844
H          H       0.10530   0.85901   0.05538   0.10933
H          H       0.89388   0.14428   0.55453   0.10972
H          H       0.11972   0.21324   0.55594   0.11095
H          H       0.89277   0.76917   0.02283   0.11367
H          H       0.13033   0.80236   0.05464   0.11107
H          H       0.86849   0.20086   0.55201   0.11235
H          H       0.04400   0.19652   0.05751   0.11725
H          H       0.95381   0.80885   0.55977   0.11689
H          H       0.04326   0.80314   0.56065   0.11685
H          H       0.95860   0.20133   0.05183   0.11673
H          H       0.07124   0.25088   0.06040   0.11183
H          H       0.92632   0.75492   0.56273   0.11170
H          H       0.07043   0.74935   0.56396   0.11123
H          H       0.93177   0.25541   0.05480   0.10964
H          H       0.10173   0.92881   0.94088   0.11096
H          H       0.89839   0.07334   0.44061   0.11073
H          H       0.09123   0.08625   0.43344   0.10824
H          H       0.90685   0.91826   0.92708   0.11081
H          H       0.08170   0.97684   0.50860   0.13884
H          H       0.91838   0.02499   0.00394   0.13686
H          H       0.08268   0.02439   0.00904   0.13826
H          H       0.91673   0.97602   0.50514   0.13562
H          H       0.08250   0.89659   0.51366   0.13916
H          H       0.08249   0.10462   0.01446   0.13838
H          H       0.91723   0.89572   0.50900   0.13906
H          H       0.98279   0.06833   0.99219   0.26924
H          H       0.01729   0.93244   0.49811   0.26884
H          H       0.98172   0.93771   0.49372   0.26897
H          H       0.01825   0.06411   0.99238   0.26959
H          H       0.97964   0.21812   0.98584   0.12980
H          H       0.02107   0.78301   0.49392   0.12723
H          H       0.97752   0.78411   0.49117   0.13044
H          H       0.02315   0.21693   0.98819   0.12943
H          H       0.50049   0.54409   0.47091   0.26931
H          H       0.50023   0.55244   0.53582   0.26951
H          H       0.49936   0.44971   0.97021   0.26977
H          H       0.49941   0.44457   0.03539   0.26956
H          H       0.35520   0.62578   0.81872   0.06957
H          H       0.64766   0.62002   0.81501   0.07112
H          H       0.64529   0.37593   0.31737   0.07043
H          H       0.35427   0.38159   0.31761   0.06938
H          H       0.15890   0.63998   0.45564   0.06610
H          H       0.06436   0.03219   0.43365   0.11603
H          H       0.07881   0.10739   0.55978   0.10733
H          H       0.05129   0.05457   0.55886   0.11711
H          H       0.13510   0.26476   0.54234   0.06290
H          H       0.86547   0.26456   0.53510   0.06517
H          H       0.92526   0.01891   0.44098   0.11329
H          H       0.93049   0.12808   0.54202   0.11036
H          H       0.95694   0.07293   0.54302   0.11582
H          H       0.84114   0.63890   0.45523   0.06685
H          H       0.97866   0.08696   0.47627   0.12768
H          H       0.02222   0.08551   0.47951   0.13054
H          H       0.91792   0.10533   0.00950   0.13864
H          H       0.97792   0.91590   0.97299   0.13113
H          H       0.02156   0.91467   0.97269   0.12952
H          H       0.07451   0.98278   0.94084   0.11138
H          H       0.04273   0.92905   0.04229   0.11693
H          H       0.06959   0.87449   0.04199   0.11119
H          H       0.14168   0.74574   0.04468   0.06365
H          H       0.15713   0.36470   0.95197   0.06629
H          H       0.85229   0.37762   0.95305   0.06392
H          H       0.92467   0.88674   0.04842   0.10845
H          H       0.95164   0.94145   0.04926   0.11649
H          H       0.85784   0.75090   0.04290   0.06698
H          H       0.93295   0.97441   0.92919   0.11558
C          C       0.37397   0.55743   0.69619  -0.12208
C          C       0.62594   0.44378   0.19620  -0.11997
C          C       0.37263   0.44589   0.19472  -0.11996
C          C       0.62611   0.54781   0.69752  -0.12012
C          C       0.35917   0.55650   0.72769  -0.15772
C          C       0.64083   0.44472   0.22761  -0.15918
C          C       0.35732   0.44662   0.22539  -0.16164
C          C       0.64089   0.54686   0.72905  -0.15971
C          C       0.07285   0.82697   0.47788  -0.14078
C          C       0.92692   0.17354   0.97272  -0.13773
C          C       0.07350   0.17230   0.97459  -0.13900
C          C       0.92827   0.82569   0.47072  -0.14104
C          C       0.08834   0.79699   0.47991  -0.14001
C          C       0.91147   0.20362   0.97488  -0.14003
C          C       0.08883   0.20284   0.97612  -0.14323
C          C       0.91291   0.79513   0.47214  -0.14050
C          C       0.39966   0.42283   0.24165  -0.12630
C          C       0.60026   0.58104   0.74039  -0.12596
C          C       0.40062   0.58729   0.74021  -0.12503
C          C       0.59923   0.41492   0.24041  -0.12663
C          C       0.38432   0.42279   0.27240  -0.18406
C          C       0.61519   0.58112   0.77190  -0.18581
C          C       0.38573   0.58727   0.77174  -0.18602
C          C       0.61421   0.41496   0.27185  -0.18565
C          C       0.05567   0.92888   0.02009  -0.13464
C          C       0.94410   0.07309   0.52053  -0.13316
C          C       0.06013   0.06154   0.53138  -0.14122
C          C       0.94172   0.93633   0.02259  -0.13854
C          C       0.07092   0.89843   0.02007  -0.14168
C          C       0.92907   0.10394   0.52012  -0.14161
C          C       0.07567   0.09174   0.53159  -0.13671
C          C       0.92668   0.90528   0.02183  -0.14010
C          C       0.45398   0.55403   0.53613   0.18536
C          C       0.54595   0.44096   0.03452   0.18484
C          C       0.45311   0.44532   0.03633   0.18543
C          C       0.54687   0.55160   0.53545   0.18378
C          C       0.46055   0.55687   0.57696  -0.07878
C          C       0.53967   0.44023   0.07555  -0.07853
C          C       0.45979   0.44417   0.07717  -0.07815
C          C       0.54041   0.55391   0.57632  -0.07511
C          C       0.44359   0.56160   0.60841   0.07782
C          C       0.55674   0.43662   0.10709   0.07682
C          C       0.44291   0.44162   0.10905   0.07635
C          C       0.55745   0.55719   0.60788   0.07623
C          C       0.36475   0.57162   0.76599   0.20192
C          C       0.63523   0.43024   0.26598   0.20197
C          C       0.36291   0.43493   0.26472   0.20249
C          C       0.63571   0.56372   0.76670   0.20215
C          C       0.56923   0.55697   0.52237  -0.19408
C          C       0.43069   0.43968   0.02359  -0.19337
C          C       0.56803   0.43342   0.02104  -0.19187
C          C       0.43171   0.56022   0.52297  -0.19173
C          C       0.98289   0.15160   0.99600   0.18359
C          C       0.01746   0.84978   0.50144   0.18531
C          C       0.98212   0.85075   0.49937   0.18534
C          C       0.01823   0.15056   0.99739   0.18288
C          C       0.99005   0.19271   0.99068  -0.19433
C          C       0.01047   0.80848   0.49672  -0.19253
C          C       0.98845   0.80906   0.49539  -0.19403
C          C       0.01207   0.19210   0.99171  -0.19503
C          C       0.94424   0.17207   0.00026   0.07888
C          C       0.05624   0.82968   0.50676   0.07965
C          C       0.94334   0.83105   0.50209   0.07754
C          C       0.05695   0.16976   0.00355   0.07804
C          C       0.86706   0.33124   0.00983   0.20113
C          C       0.13297   0.67009   0.51130   0.19933
C          C       0.86613   0.67140   0.51014   0.20121
C          C       0.13247   0.33197   0.00800   0.20056
C          C       0.04001   0.13824   0.00078  -0.07481
C          C       0.96023   0.86291   0.50017  -0.07452
C          C       0.03948   0.86128   0.50424  -0.07906
C          C       0.96083   0.14024   0.99810  -0.07833
C          C       0.37746   0.53903   0.29866  -0.12500
C          C       0.62210   0.45414   0.79868  -0.12353
C          C       0.37627   0.46338   0.79926  -0.12586
C          C       0.62282   0.53810   0.29845  -0.12571
C          C       0.36440   0.54087   0.26438  -0.17706
C          C       0.63555   0.45296   0.76494  -0.18039
C          C       0.36311   0.46241   0.76504  -0.17961
C          C       0.63593   0.53978   0.26425  -0.17926
C          C       0.06751   0.04887   0.46128  -0.14263
C          C       0.93105   0.95518   0.95534  -0.14210
C          C       0.07353   0.95914   0.96315  -0.13638
C          C       0.92633   0.04264   0.46337  -0.13761
C          C       0.40795   0.45742   0.75713  -0.12924
C          C       0.59102   0.53995   0.25618  -0.12910
C          C       0.40928   0.54441   0.25684  -0.13085
C          C       0.59073   0.44997   0.75539  -0.12603
C          C       0.39501   0.45791   0.72286  -0.16633
C          C       0.60395   0.54020   0.22196  -0.16430
C          C       0.39641   0.54508   0.22251  -0.16197
C          C       0.60400   0.45011   0.72163  -0.16432
C          C       0.05663   0.19830   0.03473  -0.13489
C          C       0.94223   0.80515   0.53528  -0.13546
C          C       0.05594   0.80140   0.53798  -0.13471
C          C       0.94543   0.20201   0.03005  -0.13391
C          C       0.07206   0.22867   0.03644  -0.14142
C          C       0.92667   0.77496   0.53698  -0.14089
C          C       0.07142   0.77134   0.53997  -0.13997
C          C       0.93009   0.23224   0.03195  -0.13885
C          C       0.45381   0.54615   0.47064   0.18481
C          C       0.54568   0.44656   0.96885   0.18483
C          C       0.45283   0.45126   0.97070   0.18428
C          C       0.54683   0.54449   0.46990   0.18419
C          C       0.46026   0.53870   0.43043  -0.07662
C          C       0.53905   0.45368   0.92870  -0.07827
C          C       0.45925   0.45774   0.93035  -0.07482
C          C       0.54015   0.53729   0.42975  -0.07455
C          C       0.40012   0.54139   0.29564   0.04911
C          C       0.59948   0.45198   0.79463   0.04804
C          C       0.39887   0.46007   0.79604   0.04933
C          C       0.60015   0.53889   0.29512   0.04928
C          C       0.37372   0.54425   0.22581   0.20150
C          C       0.62664   0.45056   0.72591   0.20127
C          C       0.37235   0.45929   0.72636   0.20208
C          C       0.62663   0.54124   0.22549   0.20149
C          C       0.56918   0.55279   0.48147  -0.19202
C          C       0.43054   0.44330   0.98267  -0.19599
C          C       0.56782   0.43665   0.98008  -0.19482
C          C       0.43164   0.55552   0.48215  -0.19466
C          C       0.98282   0.98160   0.98657   0.18502
C          C       0.01704   0.01974   0.49154   0.18523
C          C       0.98173   0.02095   0.48974   0.18483
C          C       0.01810   0.98050   0.98703   0.18320
C          C       0.98901   0.94041   0.97847  -0.19282
C          C       0.01103   0.06100   0.48380  -0.19373
C          C       0.98901   0.06173   0.48232  -0.19036
C          C       0.01103   0.93977   0.97847  -0.19190
C          C       0.94422   0.96165   0.98929   0.08046
C          C       0.05570   0.03968   0.49615   0.08386
C          C       0.94314   0.04190   0.49203   0.07703
C          C       0.05663   0.95970   0.99151   0.07864
C          C       0.86918   0.79849   0.98510   0.20345
C          C       0.13248   0.20139   0.49599   0.20222
C          C       0.86804   0.20408   0.48676   0.20405
C          C       0.13197   0.79832   0.98925   0.20071
C          C       0.04005   0.99165   0.99145  -0.07569
C          C       0.95966   0.00977   0.49233  -0.07692
C          C       0.03875   0.00773   0.49596  -0.07636
C          C       0.96106   0.99367   0.99000  -0.07805
C          C       0.48214   0.55542   0.59051   0.17661
C          C       0.51821   0.44296   0.08951   0.17755
C          C       0.48148   0.44493   0.09033   0.17744
C          C       0.51887   0.55367   0.59013   0.17498
C          C       0.48950   0.55434   0.63155  -0.18900
C          C       0.51129   0.44541   0.13072  -0.19075
C          C       0.48904   0.44664   0.13122  -0.18888
C          C       0.51176   0.55313   0.63132  -0.19076
C          C       0.48177   0.53230   0.41788   0.17841
C          C       0.51752   0.46069   0.91663   0.17791
C          C       0.48084   0.46264   0.91748   0.17515
C          C       0.51848   0.53159   0.41751   0.17467
C          C       0.48878   0.52056   0.37839  -0.19442
C          C       0.51024   0.47262   0.87744  -0.19205
C          C       0.48799   0.47381   0.87796  -0.18650
C          C       0.51103   0.52011   0.37816  -0.18870
C          C       0.04679   0.90107   0.50430   0.17708
C          C       0.95347   0.10047   0.99871   0.17632
C          C       0.04722   0.09851   0.00130   0.17618
C          C       0.95280   0.90254   0.49961   0.17588
C          C       0.06856   0.91543   0.50886  -0.19132
C          C       0.93171   0.08635   0.00388  -0.18927
C          C       0.06895   0.08509   0.00784  -0.19075
C          C       0.93083   0.91554   0.50410  -0.18963
C          C       0.04615   0.96850   0.50054   0.17329
C          C       0.95380   0.03300   0.99469   0.17554
C          C       0.04739   0.03106   0.99680   0.17438
C          C       0.95232   0.97013   0.49601   0.17534
C          C       0.06816   0.95637   0.50640  -0.18771
C          C       0.93191   0.04539   0.00119  -0.18727
C          C       0.06904   0.04414   0.00508  -0.19024
C          C       0.93055   0.95652   0.50207  -0.18769
C          C       0.66959   0.42995   0.65132   0.04613
C          C       0.33138   0.56739   0.15072   0.04767
C          C       0.66886   0.56434   0.15003   0.04521
C          C       0.33015   0.43634   0.65064   0.04617
C          C       0.66768   0.46092   0.62301  -0.11224
C          C       0.33354   0.53797   0.12061  -0.11289
C          C       0.66717   0.53386   0.12085  -0.11202
C          C       0.33158   0.46721   0.62209  -0.11309
C          C       0.68440   0.39910   0.64377  -0.13454
C          C       0.31640   0.59826   0.14477  -0.13706
C          C       0.68359   0.59571   0.14338  -0.13410
C          C       0.31602   0.40422   0.64300  -0.13510
C          C       0.69632   0.39833   0.60805  -0.14198
C          C       0.30437   0.60038   0.10920  -0.14055
C          C       0.69578   0.59730   0.10799  -0.14190
C          C       0.30427   0.40222   0.60708  -0.13917
C          C       0.67981   0.46032   0.58777  -0.13674
C          C       0.32134   0.53994   0.08545  -0.13646
C          C       0.67951   0.53536   0.08585  -0.13609
C          C       0.31958   0.46537   0.58663  -0.13825
C          C       0.69402   0.42866   0.57931   0.10062
C          C       0.30675   0.57143   0.07882   0.09941
C          C       0.69378   0.56736   0.07847   0.09828
C          C       0.30601   0.43253   0.57819   0.10088
C          C       0.65594   0.42882   0.68732   0.06631
C          C       0.34480   0.56709   0.18709   0.06663
C          C       0.65530   0.56454   0.18619   0.06645
C          C       0.34356   0.43646   0.68704   0.06839
C          C       0.70571   0.42705   0.54010  -0.08026
C          C       0.29467   0.57397   0.03997  -0.07880
C          C       0.70583   0.56973   0.03964  -0.07736
C          C       0.29404   0.42993   0.53923  -0.07896
C          C       0.72840   0.43140   0.53877   0.07573
C          C       0.27195   0.56949   0.03907   0.07492
C          C       0.72859   0.56666   0.03891   0.07723
C          C       0.27129   0.43372   0.53871   0.07507
C          C       0.73905   0.42939   0.50124  -0.03996
C          C       0.26102   0.57099   0.00175  -0.03865
C          C       0.73961   0.56925   0.00176  -0.04074
C          C       0.26020   0.43134   0.50163  -0.03807
C          C       0.72730   0.42388   0.46524   0.07758
C          C       0.27246   0.57683   0.96551   0.07877
C          C       0.72814   0.57401   0.96539   0.07899
C          C       0.27148   0.42573   0.46519   0.07936
C          C       0.70459   0.42015   0.46703  -0.07873
C          C       0.29513   0.58154   0.96685  -0.07888
C          C       0.70541   0.57687   0.96664  -0.08016
C          C       0.29416   0.42229   0.46619  -0.08066
C          C       0.69364   0.42125   0.50429   0.08067
C          C       0.30637   0.58033   0.00390   0.08048
C          C       0.69408   0.57515   0.00345   0.07976
C          C       0.30561   0.42396   0.50301   0.08168
C          C       0.76312   0.43306   0.49973  -0.03904
C          C       0.23688   0.56759   0.00060  -0.03897
C          C       0.76378   0.56758   0.00108  -0.04048
C          C       0.23614   0.43485   0.50074  -0.04118
C          C       0.77265   0.47109   0.49564   0.07857
C          C       0.22665   0.53023   0.99607   0.07510
C          C       0.77433   0.53054   0.99697   0.07499
C          C       0.22646   0.47245   0.49600   0.07914
C          C       0.79537   0.47441   0.49478  -0.07941
C          C       0.20385   0.52830   0.99468  -0.07925
C          C       0.79710   0.52945   0.99610  -0.07984
C          C       0.20371   0.47498   0.49539  -0.07945
C          C       0.80852   0.44010   0.49684   0.07933
C          C       0.19129   0.56326   0.99745   0.08120
C          C       0.80938   0.56494   0.99848   0.07852
C          C       0.19068   0.44053   0.49863   0.07933
C          C       0.79867   0.40238   0.50103  -0.08002
C          C       0.20185   0.60037   0.00215  -0.07893
C          C       0.79855   0.60157   0.00279  -0.07975
C          C       0.20070   0.40303   0.50317  -0.07897
C          C       0.77593   0.39864   0.50277   0.07824
C          C       0.22459   0.60277   0.00388   0.07592
C          C       0.77579   0.60322   0.00445   0.07972
C          C       0.22346   0.40007   0.50445   0.07845
C          C       0.80620   0.51409   0.49232   0.10335
C          C       0.19262   0.48897   0.99104   0.10474
C          C       0.80881   0.49073   0.99301   0.10655
C          C       0.19292   0.51444   0.49228   0.10242
C          C       0.81695   0.52979   0.52640  -0.13941
C          C       0.18293   0.47175   0.02533  -0.14292
C          C       0.81614   0.47144   0.02811  -0.14265
C          C       0.18275   0.53079   0.52654  -0.13855
C          C       0.82817   0.56570   0.52447  -0.10747
C          C       0.17146   0.43616   0.02263  -0.10798
C          C       0.82821   0.43658   0.02577  -0.10591
C          C       0.17153   0.56646   0.52428  -0.10718
C          C       0.82898   0.58728   0.48813   0.04704
C          C       0.16945   0.41618   0.98533   0.04748
C          C       0.83355   0.42007   0.98792   0.04713
C          C       0.17022   0.58722   0.48749   0.04770
C          C       0.81791   0.57210   0.45424  -0.13302
C          C       0.17957   0.43270   0.95123  -0.13119
C          C       0.82602   0.43907   0.95285  -0.13327
C          C       0.18071   0.57137   0.45338  -0.13358
C          C       0.80670   0.53596   0.45632  -0.14496
C          C       0.19093   0.46870   0.95405  -0.14442
C          C       0.81368   0.47371   0.95537  -0.14444
C          C       0.19187   0.53536   0.45577  -0.14416
C          C       0.84150   0.62418   0.48486   0.06907
C          C       0.15677   0.37946   0.98169   0.06836
C          C       0.84721   0.38484   0.98404   0.06953
C          C       0.15783   0.62406   0.48456   0.06925
C          C       0.69194   0.41584   0.42893   0.10642
C          C       0.30764   0.58629   0.92865   0.10680
C          C       0.69296   0.58093   0.92837   0.10602
C          C       0.30655   0.41830   0.42787   0.10565
C          C       0.68685   0.44976   0.40596  -0.14200
C          C       0.31251   0.55249   0.90510  -0.14336
C          C       0.68608   0.54650   0.90754  -0.14102
C          C       0.30983   0.45193   0.40329  -0.14247
C          C       0.67444   0.44652   0.37106  -0.11092
C          C       0.32507   0.55562   0.87044  -0.10861
C          C       0.67380   0.54937   0.87254  -0.11074
C          C       0.32218   0.44952   0.36834  -0.11079
C          C       0.66661   0.40911   0.35821   0.04543
C          C       0.33329   0.59289   0.85833   0.04457
C          C       0.66781   0.58697   0.85760   0.04508
C          C       0.33175   0.41313   0.35699   0.04572
C          C       0.67179   0.37514   0.38093  -0.13207
C          C       0.32824   0.62681   0.88151  -0.13345
C          C       0.67471   0.62143   0.87826  -0.13152
C          C       0.32828   0.37938   0.38120  -0.13251
C          C       0.68444   0.37845   0.41568  -0.14578
C          C       0.31545   0.62359   0.91603  -0.14586
C          C       0.68733   0.61842   0.91304  -0.14526
C          C       0.31573   0.38190   0.41606  -0.14470
C          C       0.65298   0.40519   0.32233   0.06710
C          C       0.34716   0.59673   0.82282   0.06703
C          C       0.65431   0.59035   0.82159   0.06593
C          C       0.34556   0.40992   0.32138   0.06722
C          C       0.81246   0.36621   0.50352   0.10187
C          C       0.18872   0.63745   0.00531   0.10550
C          C       0.81154   0.63900   0.00568   0.10713
C          C       0.18712   0.36652   0.50675   0.09924
C          C       0.81304   0.33843   0.47157  -0.14117
C          C       0.18504   0.66152   0.97131  -0.14180
C          C       0.81586   0.66169   0.97092  -0.14559
C          C       0.18775   0.33638   0.47702  -0.13987
C          C       0.82633   0.30517   0.47331  -0.10691
C          C       0.17246   0.69569   0.97406  -0.10588
C          C       0.82854   0.69594   0.97305  -0.10666
C          C       0.17497   0.30235   0.48014  -0.10999
C          C       0.83962   0.29876   0.50719   0.04553
C          C       0.16310   0.70677   0.01115   0.04757
C          C       0.83730   0.70861   0.01022   0.04315
C          C       0.16086   0.29755   0.51317   0.04896
C          C       0.83900   0.32634   0.53924  -0.13271
C          C       0.16689   0.68294   0.04524  -0.13616
C          C       0.83295   0.68607   0.04499  -0.13179
C          C       0.16026   0.32753   0.54297  -0.13645
C          C       0.82552   0.35949   0.53750  -0.14251
C          C       0.17960   0.64882   0.04236  -0.14557
C          C       0.82020   0.65171   0.04271  -0.14357
C          C       0.17329   0.36135   0.53992  -0.14097
C          C       0.85414   0.26463   0.50945   0.07079
C          C       0.14920   0.74161   0.01488   0.06818
C          C       0.85094   0.74419   0.01297   0.07089
C          C       0.14653   0.26314   0.51694   0.06853
C          C       0.74145   0.43837   0.57675  -0.42256
C          C       0.25902   0.56280   0.07712  -0.42473
C          C       0.74146   0.56009   0.07708  -0.42241
C          C       0.25872   0.44088   0.57711  -0.42449
C          C       0.66932   0.41618   0.50580  -0.42136
C          C       0.33070   0.58553   0.00462  -0.42479
C          C       0.66970   0.57929   0.00364  -0.42345
C          C       0.32993   0.41914   0.50273  -0.42297
C          C       0.73891   0.42220   0.42520  -0.42218
C          C       0.26042   0.57778   0.92584  -0.42131
C          C       0.73993   0.57704   0.92560  -0.41893
C          C       0.25933   0.42366   0.42568  -0.42094
C          C       0.76530   0.35833   0.50760  -0.42170
C          C       0.23605   0.64241   0.00842  -0.42346
C          C       0.76460   0.64274   0.01065  -0.42108
C          C       0.23459   0.36043   0.50971  -0.42435
C          C       0.75818   0.50718   0.49303  -0.42285
C          C       0.23998   0.49268   0.99287  -0.42085
C          C       0.76119   0.49265   0.99316  -0.42250
C          C       0.24026   0.50944   0.49153  -0.42135
C          C       0.83282   0.44389   0.49291  -0.42207
C          C       0.16693   0.56126   0.99346  -0.42565
C          C       0.83380   0.56383   0.99652  -0.42230
C          C       0.16633   0.44397   0.49578  -0.42193
C          C       0.08872   0.92853   0.96298  -0.14041
C          C       0.91133   0.07360   0.46290  -0.14179
C          C       0.08284   0.07951   0.46141  -0.13605
C          C       0.91624   0.92367   0.95436  -0.14029
C          C       0.41443   0.54094   0.33134   0.06502
C          C       0.58489   0.45194   0.82990   0.06541
C          C       0.41321   0.45908   0.83171   0.06475
C          C       0.58579   0.53876   0.33069   0.06528
C          C       0.43255   0.56648   0.33262  -0.14452
C          C       0.56684   0.42622   0.83059  -0.14531
C          C       0.43049   0.43189   0.83273  -0.14433
C          C       0.56778   0.56428   0.33175  -0.14469
C          C       0.41107   0.51530   0.36427  -0.14287
C          C       0.58809   0.47754   0.86312  -0.14143
C          C       0.41063   0.48496   0.86486  -0.14402
C          C       0.58908   0.51324   0.36369  -0.14138
C          C       0.44387   0.53955   0.39747   0.07685
C          C       0.55533   0.45277   0.89564   0.07777
C          C       0.44271   0.45793   0.89767   0.07504
C          C       0.55642   0.53762   0.39671   0.07572
C          C       0.39514   0.57214   0.70185   0.04859
C          C       0.60471   0.42954   0.20198   0.04874
C          C       0.39418   0.43464   0.20228   0.04804
C          C       0.60537   0.56429   0.70260   0.04779
C          C       0.41143   0.56938   0.66939   0.06574
C          C       0.58850   0.43156   0.16925   0.06517
C          C       0.41073   0.43676   0.17026   0.06646
C          C       0.58921   0.56238   0.66985   0.06630
C          C       0.42807   0.59788   0.66526  -0.14595
C          C       0.57215   0.40247   0.16517  -0.14186
C          C       0.42716   0.40797   0.16720  -0.14548
C          C       0.57356   0.59238   0.66501  -0.14190
C          C       0.44380   0.59410   0.63539  -0.13940
C          C       0.55662   0.40491   0.13476  -0.13955
C          C       0.44287   0.41027   0.13715  -0.13791
C          C       0.55799   0.58983   0.63466  -0.13959
C          C       0.42688   0.53327   0.61228  -0.13446
C          C       0.57324   0.46542   0.11072  -0.13541
C          C       0.42652   0.47047   0.11212  -0.13319
C          C       0.57328   0.52752   0.61220  -0.13425
C          C       0.41113   0.53712   0.64206  -0.13918
C          C       0.58877   0.46297   0.14115  -0.14017
C          C       0.41072   0.46802   0.14203  -0.14178
C          C       0.58882   0.53005   0.64261  -0.14111
C          C       0.08728   0.10200   0.49650   0.05592
C          C       0.91379   0.89792   0.98751   0.05999
C          C       0.08766   0.89744   0.99130   0.06028
C          C       0.91244   0.10506   0.49110   0.06161
C          C       0.10309   0.13531   0.49649   0.05589
C          C       0.89843   0.86406   0.98651   0.05017
C          C       0.10323   0.86424   0.99055   0.05627
C          C       0.89697   0.13853   0.48981   0.05276
C          C       0.10474   0.16192   0.52950  -0.13048
C          C       0.90294   0.82870   0.00765  -0.13001
C          C       0.11057   0.84668   0.02662  -0.13301
C          C       0.88912   0.15639   0.52544  -0.13187
C          C       0.11907   0.19389   0.52955  -0.17587
C          C       0.88863   0.79657   0.00720  -0.18475
C          C       0.12472   0.81458   0.02616  -0.17629
C          C       0.87487   0.18842   0.52409  -0.18259
C          C       0.13132   0.17449   0.46335  -0.15372
C          C       0.86484   0.83331   0.96295  -0.16317
C          C       0.12509   0.81646   0.95324  -0.15452
C          C       0.87525   0.18544   0.45111  -0.16086
C          C       0.11701   0.14238   0.46359  -0.13403
C          C       0.87906   0.86554   0.96407  -0.13445
C          C       0.11098   0.84867   0.95384  -0.13570
C          C       0.88957   0.15360   0.45267  -0.13412
C          C       0.08789   0.76826   0.51077   0.06035
C          C       0.91272   0.23386   0.00444   0.06082
C          C       0.08829   0.23191   0.00685   0.06158
C          C       0.91179   0.76916   0.50531   0.06174
C          C       0.10374   0.73543   0.51146   0.05518
C          C       0.89675   0.26644   0.00645   0.05449
C          C       0.10387   0.26537   0.00749   0.05425
C          C       0.89572   0.73639   0.50668   0.05340
C          C       0.11105   0.71857   0.54784  -0.13676
C          C       0.89227   0.28624   0.04307  -0.13473
C          C       0.11238   0.28044   0.04392  -0.13554
C          C       0.88446   0.72745   0.54247  -0.13596
C          C       0.12525   0.68648   0.54772  -0.15455
C          C       0.87772   0.31772   0.04474  -0.15462
C          C       0.12632   0.31310   0.04415  -0.15629
C          C       0.87003   0.69556   0.54427  -0.16044
C          C       0.12583   0.68708   0.47479  -0.17565
C          C       0.87093   0.31070   0.97329  -0.17545
C          C       0.12393   0.31700   0.97143  -0.17735
C          C       0.87731   0.68030   0.47418  -0.18092
C          C       0.11158   0.71903   0.47505  -0.13062
C          C       0.88551   0.27924   0.97179  -0.13181
C          C       0.11003   0.28427   0.97135  -0.13224
C          C       0.89172   0.71229   0.47257  -0.13248
C          C       0.55348   0.56384   0.36411  -0.13615
C          C       0.44487   0.43125   0.86503  -0.13678
C          C       0.55242   0.42651   0.86281  -0.13645
C          C       0.44688   0.56592   0.36498  -0.13650
C          C       0.57461   0.51254   0.39604  -0.13532
C          C       0.42514   0.48445   0.89722  -0.13578
C          C       0.57354   0.47805   0.89532  -0.13590
C          C       0.42555   0.51454   0.39668  -0.13591
N          N       0.34978   0.56783   0.79746  -0.28391
N          N       0.65013   0.43432   0.29761  -0.28279
N          N       0.34752   0.43839   0.29554  -0.28415
N          N       0.65051   0.56011   0.79843  -0.28197
N          N       0.85340   0.36426   0.01484  -0.29913
N          N       0.14625   0.63652   0.51450  -0.29571
N          N       0.85247   0.63833   0.51492  -0.29019
N          N       0.14581   0.36569   0.01181  -0.29537
N          N       0.36161   0.54458   0.19005  -0.28079
N          N       0.63914   0.45127   0.69068  -0.28083
N          N       0.36014   0.45968   0.69069  -0.28178
N          N       0.63881   0.54110   0.18985  -0.28127
N          N       0.85457   0.76663   0.98210  -0.28728
N          N       0.14697   0.23349   0.49190  -0.30086
N          N       0.85406   0.23660   0.48258  -0.29234
N          N       0.14569   0.76533   0.98495  -0.29873
N          N       0.96628   0.06721   0.99381  -0.26224
N          N       0.03380   0.93411   0.49981  -0.26118
N          N       0.96520   0.93656   0.49497  -0.26177
N          N       0.03473   0.06482   0.99516  -0.26103
N          N       0.46722   0.54602   0.50383  -0.42130
N          N       0.53253   0.44820   0.00230  -0.42055
N          N       0.46638   0.45156   0.00369  -0.42134
N          N       0.53346   0.54466   0.50307  -0.41981
N          N       0.50025   0.53751   0.44080  -0.26102
N          N       0.49924   0.45612   0.94011  -0.26170
N          N       0.50043   0.55452   0.56657  -0.26127
N          N       0.49967   0.44340   0.06617  -0.26348
N          N       0.00001   0.87515   0.50219  -0.42063
N          N       0.00027   0.12627   0.99893  -0.41814
N          N       0.99903   0.99570   0.49428  -0.41913
N          N       0.00073   0.00569   0.99082  -0.41914

