data_crystal

_audit_creation_method 'AiiDA-DDEC plugin'

_cell_length_a        50.72878
_cell_length_b        26.75895
_cell_length_c        26.78134

_cell_angle_alpha     90.15619
_cell_angle_beta     89.98913
_cell_angle_gamma     89.81055

_symmetry_space_group_name_Hall 'P 1'
_symmetry_space_group_name_H-M  'P 1'

loop_
_symmetry_equiv_pos_as_xyz
 'x,y,z'

loop_
_atom_site_label
_atom_site_type_symbol
_atom_site_fract_x
_atom_site_fract_y
_atom_site_fract_z
_atom_site_charge
H          H       0.64000   0.41901   0.49126   0.13482
H          H       0.36073   0.59176   0.99754   0.13251
H          H       0.63972   0.57555   0.99408   0.13679
H          H       0.35704   0.36277   0.51955   0.13064
H          H       0.64231   0.43971   0.55435   0.13606
H          H       0.35695   0.54784   0.04646   0.13744
H          H       0.64251   0.57456   0.06037   0.13291
H          H       0.35984   0.42400   0.49598   0.13754
H          H       0.64266   0.37532   0.54074   0.13158
H          H       0.35686   0.61208   0.06052   0.13152
H          H       0.64139   0.63201   0.02841   0.13069
H          H       0.35832   0.41386   0.56171   0.13268
H          H       0.75280   0.45239   0.60915   0.13670
H          H       0.23969   0.58219   0.10486   0.13116
H          H       0.75236   0.55587   0.10860   0.13562
H          H       0.25122   0.45649   0.61164   0.13738
H          H       0.75149   0.38698   0.61463   0.13536
H          H       0.26672   0.60572   0.14024   0.13143
H          H       0.75150   0.62150   0.11153   0.13202
H          H       0.24611   0.39151   0.61264   0.13491
H          H       0.72716   0.42430   0.64471   0.12970
H          H       0.26338   0.54090   0.13111   0.13294
H          H       0.72696   0.58651   0.14319   0.13006
H          H       0.27355   0.41750   0.64494   0.12963
H          H       0.72471   0.38373   0.39903   0.13255
H          H       0.28074   0.59836   0.89460   0.13132
H          H       0.72253   0.61477   0.89517   0.13428
H          H       0.27995   0.40702   0.39222   0.13045
H          H       0.75407   0.40887   0.42568   0.13008
H          H       0.25241   0.62189   0.92617   0.13725
H          H       0.75318   0.60034   0.92474   0.13036
H          H       0.25332   0.37557   0.42144   0.13255
H          H       0.72906   0.44886   0.40209   0.13078
H          H       0.25590   0.55717   0.91657   0.13127
H          H       0.73217   0.55198   0.90365   0.13026
H          H       0.25341   0.44129   0.41935   0.13255
H          H       0.68013   0.33330   0.61702   0.11426
H          H       0.31446   0.66326   0.12592   0.11386
H          H       0.67903   0.67409   0.11750   0.11518
H          H       0.31756   0.32851   0.62109   0.11449
H          H       0.65483   0.32789   0.69624   0.10536
H          H       0.33817   0.66775   0.20720   0.10652
H          H       0.65414   0.67736   0.19769   0.10537
H          H       0.34132   0.32424   0.70236   0.10263
H          H       0.65458   0.48841   0.70787   0.11554
H          H       0.34641   0.50766   0.20739   0.11481
H          H       0.65563   0.51693   0.20555   0.11557
H          H       0.34723   0.48458   0.70521   0.11587
H          H       0.67946   0.49356   0.62772   0.11717
H          H       0.32319   0.50356   0.12520   0.11434
H          H       0.68054   0.51382   0.12483   0.11628
H          H       0.32322   0.48872   0.62378   0.11678
H          H       0.67742   0.48424   0.40901   0.11375
H          H       0.31652   0.52163   0.90281   0.11477
H          H       0.68311   0.51982   0.90352   0.11356
H          H       0.32246   0.47750   0.41011   0.11530
H          H       0.65108   0.47272   0.33102   0.11597
H          H       0.34492   0.53221   0.82752   0.11560
H          H       0.65561   0.52693   0.82634   0.11489
H          H       0.35006   0.46712   0.33319   0.11400
H          H       0.67115   0.32718   0.43992   0.11487
H          H       0.33720   0.66921   0.95257   0.11609
H          H       0.66299   0.67087   0.94341   0.11466
H          H       0.32976   0.32044   0.44021   0.11420
H          H       0.64546   0.31544   0.36176   0.10244
H          H       0.36597   0.67941   0.87828   0.10388
H          H       0.63493   0.67746   0.86754   0.10432
H          H       0.35710   0.30985   0.36389   0.10265
H          H       0.85855   0.42166   0.54487   0.13082
H          H       0.14159   0.57013   0.04025   0.13157
H          H       0.85624   0.54189   0.99783   0.13218
H          H       0.14437   0.45954   0.48853   0.13535
H          H       0.85646   0.45436   0.48772   0.13569
H          H       0.14446   0.54316   0.98023   0.13493
H          H       0.85721   0.60817   0.99182   0.13331
H          H       0.14434   0.39328   0.48178   0.13357
H          H       0.85666   0.38771   0.48849   0.13393
H          H       0.14305   0.60938   0.98742   0.13298
H          H       0.85689   0.58064   0.05148   0.13258
H          H       0.14112   0.42046   0.54146   0.13182
H          H       0.74480   0.32857   0.53811   0.13056
H          H       0.25576   0.67154   0.02503   0.13153
H          H       0.75246   0.68205   0.05184   0.13304
H          H       0.25226   0.32621   0.54617   0.13259
H          H       0.77593   0.29786   0.54479   0.13040
H          H       0.22674   0.69645   0.05330   0.13352
H          H       0.77800   0.71011   0.01634   0.13123
H          H       0.22204   0.29431   0.53421   0.13051
H          H       0.76204   0.30648   0.48503   0.13648
H          H       0.23066   0.69958   0.98814   0.13222
H          H       0.75031   0.68237   0.98633   0.13828
H          H       0.24300   0.31186   0.48441   0.13459
H          H       0.77248   0.54462   0.52376   0.13259
H          H       0.22820   0.45377   0.00523   0.13019
H          H       0.77109   0.45795   0.02168   0.13039
H          H       0.22950   0.54360   0.52661   0.13334
H          H       0.74303   0.50911   0.53135   0.13244
H          H       0.25134   0.48449   0.04443   0.13856
H          H       0.74173   0.49404   0.02995   0.13338
H          H       0.25876   0.50645   0.53087   0.13321
H          H       0.75510   0.52207   0.47107   0.13279
H          H       0.25485   0.48808   0.97918   0.13239
H          H       0.75411   0.48247   0.96942   0.13339
H          H       0.24544   0.52172   0.47201   0.13031
H          H       0.83656   0.50664   0.57902   0.11438
H          H       0.16779   0.48733   0.07914   0.11219
H          H       0.82596   0.48425   0.08817   0.11503
H          H       0.16303   0.50674   0.57807   0.11587
H          H       0.86160   0.58676   0.57450   0.11270
H          H       0.14229   0.40755   0.07403   0.11568
H          H       0.85255   0.40539   0.08400   0.11299
H          H       0.13829   0.58751   0.57383   0.11493
H          H       0.80467   0.53384   0.43299   0.11559
H          H       0.19329   0.46733   0.92746   0.11560
H          H       0.81302   0.47659   0.92976   0.11595
H          H       0.19848   0.53769   0.43587   0.11552
H          H       0.82902   0.61423   0.42907   0.10608
H          H       0.16849   0.38738   0.92282   0.10536
H          H       0.83995   0.39882   0.92547   0.10601
H          H       0.17449   0.61869   0.43231   0.10640
H          H       0.82934   0.33810   0.59856   0.11454
H          H       0.17111   0.66192   0.09528   0.11471
H          H       0.82649   0.66726   0.09965   0.11463
H          H       0.17190   0.33963   0.59881   0.11481
H          H       0.85532   0.25948   0.60662   0.10395
H          H       0.14448   0.74011   0.10279   0.10440
H          H       0.85393   0.74419   0.10643   0.10412
H          H       0.14492   0.26257   0.60817   0.10640
H          H       0.84429   0.22947   0.45023   0.11408
H          H       0.15258   0.76528   0.94519   0.11428
H          H       0.84959   0.76404   0.94756   0.11637
H          H       0.15172   0.23398   0.45080   0.11541
H          H       0.81702   0.30731   0.44286   0.11616
H          H       0.18009   0.68751   0.93800   0.11621
H          H       0.82184   0.68695   0.94072   0.11711
H          H       0.17945   0.31094   0.44156   0.11475
H          H       0.41594   0.64149   0.40355   0.11575
H          H       0.58423   0.36087   0.90413   0.11594
H          H       0.42291   0.35420   0.89401   0.11506
H          H       0.58780   0.63251   0.41093   0.11263
H          H       0.38113   0.63791   0.33947   0.10957
H          H       0.61949   0.36385   0.84007   0.11085
H          H       0.38906   0.35347   0.82784   0.10881
H          H       0.62250   0.63140   0.34611   0.11128
H          H       0.42602   0.50550   0.64900   0.11655
H          H       0.58240   0.49115   0.13482   0.11660
H          H       0.42141   0.49338   0.14394   0.11812
H          H       0.57565   0.50042   0.64500   0.11621
H          H       0.39310   0.50534   0.71849   0.11282
H          H       0.61397   0.49192   0.20678   0.10929
H          H       0.38952   0.49113   0.21585   0.11106
H          H       0.60983   0.50053   0.71255   0.11121
H          H       0.60005   0.55461   0.46489   0.12629
H          H       0.39885   0.42945   0.97139   0.12748
H          H       0.60047   0.43445   0.96599   0.12975
H          H       0.39897   0.56603   0.47318   0.12781
H          H       0.60104   0.56318   0.56531   0.12911
H          H       0.39975   0.42030   0.07212   0.12765
H          H       0.60146   0.42402   0.06603   0.12652
H          H       0.40008   0.57495   0.57368   0.12930
H          H       0.47096   0.56653   0.32905   0.13771
H          H       0.52495   0.43314   0.82715   0.13647
H          H       0.47173   0.43515   0.82905   0.13795
H          H       0.52407   0.56713   0.32551   0.13559
H          H       0.47599   0.59027   0.70967   0.13559
H          H       0.52831   0.41140   0.20823   0.13878
H          H       0.47505   0.41264   0.20962   0.13891
H          H       0.52938   0.58861   0.70689   0.13473
H          H       0.50048   0.56918   0.47765   0.26880
H          H       0.49968   0.43214   0.97854   0.26911
H          H       0.50036   0.58346   0.55806   0.26827
H          H       0.50069   0.41748   0.05853   0.26891
H          H       0.07914   0.79359   0.44498   0.11524
H          H       0.90962   0.19299   0.95706   0.11306
H          H       0.08323   0.19819   0.94625   0.11338
H          H       0.91917   0.79439   0.44453   0.11424
H          H       0.11020   0.72235   0.44664   0.11080
H          H       0.87668   0.26096   0.96408   0.11160
H          H       0.11617   0.26574   0.94897   0.11071
H          H       0.88800   0.72376   0.44724   0.11079
H          H       0.10101   0.97117   0.52227   0.13598
H          H       0.89928   0.02885   0.02549   0.13600
H          H       0.10057   0.03148   0.01734   0.13428
H          H       0.89901   0.96885   0.50966   0.13586
H          H       0.10097   0.87028   0.52583   0.13525
H          H       0.89869   0.12931   0.03208   0.13852
H          H       0.09986   0.13238   0.02259   0.13549
H          H       0.89903   0.86815   0.51537   0.13525
H          H       0.43893   0.33815   0.16746   0.11212
H          H       0.57141   0.66060   0.65338   0.11581
H          H       0.43414   0.66459   0.66457   0.11299
H          H       0.56258   0.33908   0.16870   0.11155
H          H       0.40724   0.33530   0.23753   0.11186
H          H       0.60546   0.66088   0.71974   0.11094
H          H       0.40135   0.66487   0.73278   0.10972
H          H       0.59414   0.33924   0.23913   0.10942
H          H       0.43061   0.51340   0.87999   0.11619
H          H       0.55566   0.49617   0.35207   0.11242
H          H       0.43667   0.48861   0.37365   0.11367
H          H       0.55874   0.50833   0.86293   0.11407
H          H       0.39589   0.51288   0.81329   0.11098
H          H       0.59123   0.49382   0.28811   0.11554
H          H       0.40071   0.48405   0.30979   0.11281
H          H       0.59443   0.51172   0.79878   0.11563
H          H       0.85808   0.67451   0.46424   0.06420
H          H       0.13808   0.32940   0.95620   0.06311
H          H       0.86955   0.34086   0.96206   0.06481
H          H       0.14445   0.67905   0.46739   0.06557
H          H       0.97844   0.91773   0.51270   0.26829
H          H       0.97772   0.08160   0.00951   0.26936
H          H       0.02173   0.92142   0.51415   0.26853
H          H       0.02104   0.08068   0.01094   0.26864
H          H       0.97452   0.72809   0.51842   0.12793
H          H       0.97204   0.27182   0.01179   0.12621
H          H       0.02515   0.27210   0.01064   0.12969
H          H       0.02765   0.72946   0.51929   0.13003
H          H       0.38815   0.64581   0.80712   0.06511
H          H       0.61251   0.63862   0.79877   0.06411
H          H       0.62973   0.63766   0.26229   0.06707
H          H       0.09434   0.70174   0.60307   0.11992
H          H       0.06261   0.77323   0.60091   0.11896
H          H       0.05241   0.90984   0.06661   0.11672
H          H       0.08399   0.83932   0.06187   0.11251
H          H       0.62882   0.36553   0.75968   0.06300
H          H       0.62474   0.34642   0.28964   0.06260
H          H       0.37812   0.34216   0.29165   0.06391
H          H       0.36470   0.63158   0.26865   0.06137
H          H       0.12478   0.18991   0.57467   0.06566
H          H       0.12471   0.81191   0.06835   0.06547
H          H       0.12129   0.90759   0.93514   0.12041
H          H       0.08941   0.97832   0.93985   0.11445
H          H       0.02670   0.89340   0.98125   0.12781
H          H       0.90854   0.69716   0.60067   0.12170
H          H       0.94043   0.76823   0.59754   0.11909
H          H       0.87509   0.81401   0.07088   0.06630
H          H       0.91647   0.83880   0.06394   0.11226
H          H       0.94800   0.90919   0.06865   0.11692
H          H       0.87937   0.90681   0.93654   0.12303
H          H       0.91126   0.97738   0.94130   0.11518
H          H       0.97367   0.89301   0.98217   0.12840
H          H       0.94051   0.07705   0.57960   0.11693
H          H       0.90904   0.14762   0.57686   0.11141
H          H       0.87278   0.18422   0.57271   0.06302
H          H       0.91812   0.03330   0.43122   0.11666
H          H       0.88656   0.10534   0.42780   0.11997
H          H       0.02563   0.11000   0.49619   0.13038
H          H       0.97253   0.10819   0.49428   0.13125
H          H       0.36509   0.36139   0.76753   0.06173
H          H       0.11833   0.09828   0.43742   0.12216
H          H       0.08639   0.02749   0.44186   0.11474
H          H       0.08576   0.15944   0.57276   0.11235
H          H       0.05427   0.08921   0.57709   0.11362
H          H       0.94539   0.24039   0.09462   0.11518
H          H       0.91212   0.30911   0.10177   0.12203
H          H       0.05642   0.23786   0.09326   0.11927
H          H       0.08968   0.30672   0.09610   0.12185
C          C       0.42056   0.54030   0.66746  -0.13316
C          C       0.58537   0.45780   0.15732  -0.12932
C          C       0.41788   0.45881   0.16415  -0.13257
C          C       0.58216   0.53546   0.66156  -0.13186
C          C       0.40216   0.54003   0.70606  -0.15228
C          C       0.60310   0.45827   0.19697  -0.15363
C          C       0.40007   0.45771   0.20370  -0.14970
C          C       0.60125   0.53525   0.69891  -0.16193
C          C       0.08289   0.77419   0.47993  -0.13673
C          C       0.91031   0.21854   0.98871  -0.13326
C          C       0.08478   0.22182   0.97928  -0.13334
C          C       0.91654   0.77354   0.47901  -0.13347
C          C       0.10055   0.73414   0.48101  -0.17846
C          C       0.89191   0.25718   0.99244  -0.18236
C          C       0.10325   0.26019   0.98089  -0.17813
C          C       0.89891   0.73379   0.48073  -0.17939
C          C       0.42785   0.37147   0.17787  -0.13551
C          C       0.57964   0.62547   0.66668  -0.13702
C          C       0.42530   0.62961   0.67654  -0.13725
C          C       0.57411   0.37236   0.17683  -0.13355
C          C       0.40991   0.37005   0.21718  -0.17783
C          C       0.59862   0.62554   0.70438  -0.18385
C          C       0.40690   0.62963   0.71527  -0.17825
C          C       0.59197   0.37252   0.21625  -0.17784
C          C       0.06774   0.90963   0.03819  -0.12731
C          C       0.92829   0.08280   0.54670  -0.13157
C          C       0.06858   0.09080   0.54689  -0.12656
C          C       0.93264   0.90910   0.04031  -0.12747
C          C       0.08569   0.87026   0.03581  -0.18203
C          C       0.91040   0.12232   0.54510  -0.17736
C          C       0.08646   0.13008   0.54460  -0.18094
C          C       0.91479   0.86978   0.03788  -0.18248
C          C       0.44421   0.57885   0.56182   0.18476
C          C       0.55703   0.42155   0.05764   0.18326
C          C       0.44400   0.42245   0.06098   0.18388
C          C       0.55695   0.57344   0.55624   0.18259
C          C       0.45273   0.58442   0.61161  -0.07823
C          C       0.54950   0.41613   0.10800  -0.07475
C          C       0.45245   0.41740   0.11082  -0.07765
C          C       0.54966   0.58041   0.60655  -0.07640
C          C       0.43254   0.58498   0.65226   0.07903
C          C       0.57030   0.41507   0.14711   0.07718
C          C       0.43220   0.41578   0.15101   0.07909
C          C       0.57086   0.58051   0.64527   0.07636
C          C       0.39531   0.58456   0.73116   0.19523
C          C       0.60664   0.41585   0.22732   0.19472
C          C       0.39583   0.41349   0.23094   0.19171
C          C       0.60919   0.58009   0.72195   0.19749
C          C       0.58418   0.56562   0.54063  -0.19346
C          C       0.41624   0.42325   0.04662  -0.19055
C          C       0.58444   0.42503   0.04168  -0.19033
C          C       0.41651   0.57471   0.54790  -0.19290
C          C       0.97735   0.18791   0.01794   0.18426
C          C       0.02185   0.81352   0.52029   0.18421
C          C       0.97884   0.81241   0.51961   0.18467
C          C       0.02039   0.18811   0.01677   0.18464
C          C       0.98529   0.24017   0.01453  -0.19011
C          C       0.01420   0.76096   0.51988  -0.19040
C          C       0.98738   0.76028   0.51958  -0.19009
C          C       0.01212   0.24030   0.01388  -0.19302
C          C       0.93022   0.21241   0.02482   0.07459
C          C       0.06894   0.78878   0.52294   0.07862
C          C       0.93192   0.78628   0.52082   0.07887
C          C       0.06744   0.21340   0.01943   0.08117
C          C       0.89288   0.29125   0.03267   0.20305
C          C       0.10501   0.70765   0.52572   0.19898
C          C       0.89586   0.70565   0.52482   0.19712
C          C       0.10500   0.29183   0.02300   0.19945
C          C       0.04715   0.17331   0.01700  -0.07954
C          C       0.95202   0.82665   0.51802  -0.07809
C          C       0.04843   0.82893   0.52065  -0.07605
C          C       0.95068   0.17274   0.02004  -0.07543
C          C       0.41288   0.60716   0.38246  -0.13450
C          C       0.58625   0.39357   0.88037  -0.13208
C          C       0.41703   0.38900   0.87619  -0.13633
C          C       0.58819   0.60266   0.38327  -0.12644
C          C       0.39324   0.60497   0.34619  -0.18008
C          C       0.60597   0.39525   0.84419  -0.18282
C          C       0.39794   0.38878   0.83884  -0.17472
C          C       0.60767   0.60211   0.34657  -0.18601
C          C       0.08676   0.05580   0.47110  -0.13556
C          C       0.91189   0.94767   0.96892  -0.13483
C          C       0.08859   0.94844   0.96728  -0.13447
C          C       0.91566   0.05791   0.46333  -0.13972
C          C       0.42153   0.47847   0.86835  -0.13800
C          C       0.57003   0.52619   0.35024  -0.13064
C          C       0.42462   0.52129   0.36559  -0.13254
C          C       0.57174   0.47640   0.85720  -0.13196
C          C       0.40224   0.47848   0.83129  -0.14584
C          C       0.58979   0.52475   0.31428  -0.15423
C          C       0.40478   0.51864   0.32975  -0.15029
C          C       0.59164   0.47858   0.82147  -0.15424
C          C       0.06948   0.24434   0.06171  -0.13620
C          C       0.92869   0.75863   0.56491  -0.13558
C          C       0.07347   0.76255   0.56748  -0.13682
C          C       0.93049   0.24538   0.06584  -0.12737
C          C       0.08797   0.28268   0.06346  -0.15274
C          C       0.91098   0.71904   0.56683  -0.15409
C          C       0.09111   0.72262   0.56880  -0.15509
C          C       0.91200   0.28371   0.07000  -0.16085
C          C       0.44337   0.57216   0.48067   0.18418
C          C       0.55623   0.42837   0.97652   0.18473
C          C       0.44324   0.42897   0.97994   0.18227
C          C       0.55621   0.56762   0.47496   0.18456
C          C       0.45071   0.56842   0.42999  -0.07823
C          C       0.54787   0.43176   0.92633  -0.07604
C          C       0.45071   0.43275   0.92945  -0.07323
C          C       0.54794   0.56646   0.42450  -0.07527
C          C       0.42923   0.56571   0.39209   0.07989
C          C       0.56863   0.43377   0.88712   0.07490
C          C       0.42941   0.43364   0.89095   0.08042
C          C       0.56870   0.56529   0.38533   0.07352
C          C       0.38929   0.56082   0.31828   0.19594
C          C       0.60860   0.43759   0.81342   0.19989
C          C       0.39054   0.43368   0.81510   0.19273
C          C       0.60841   0.56349   0.31067   0.20307
C          C       0.58371   0.56168   0.48995  -0.18917
C          C       0.41577   0.42749   0.99600  -0.18914
C          C       0.58394   0.42990   0.99111  -0.19339
C          C       0.41596   0.57037   0.49725  -0.18989
C          C       0.97849   0.97469   0.00314   0.18536
C          C       0.02137   0.02672   0.50910   0.18414
C          C       0.97836   0.02528   0.50724   0.18598
C          C       0.02154   0.97484   0.00241   0.18417
C          C       0.98668   0.92384   0.99073  -0.19321
C          C       0.01279   0.07819   0.50124  -0.19249
C          C       0.98598   0.07731   0.50032  -0.19324
C          C       0.01351   0.92397   0.99028  -0.19231
C          C       0.93161   0.94870   0.00589   0.07202
C          C       0.06832   0.05301   0.51022   0.07416
C          C       0.93130   0.05013   0.50586   0.07832
C          C       0.06866   0.94937   0.00387   0.07304
C          C       0.89515   0.86872   0.00063   0.20355
C          C       0.10484   0.13294   0.50519   0.20113
C          C       0.89488   0.13057   0.50217   0.19897
C          C       0.10545   0.86914  -0.00122   0.20234
C          C       0.04829   0.98943   0.00554  -0.07503
C          C       0.95173   0.01001   0.50735  -0.07769
C          C       0.04823   0.01266   0.51180  -0.07501
C          C       0.95170   0.98896   0.00745  -0.07382
C          C       0.47916   0.58749   0.62681   0.17633
C          C       0.52341   0.41333   0.12546   0.17658
C          C       0.47879   0.41436   0.12667   0.17749
C          C       0.52378   0.58577   0.62440   0.17439
C          C       0.48868   0.58962   0.67718  -0.18615
C          C       0.51501   0.41183   0.17661  -0.19066
C          C       0.48790   0.41250   0.17735  -0.18875
C          C       0.51580   0.58870   0.67573  -0.18551
C          C       0.47669   0.56666   0.41165   0.17640
C          C       0.52148   0.43341   0.91023   0.17595
C          C       0.47677   0.43427   0.91173   0.17253
C          C       0.52143   0.56635   0.40871   0.17519
C          C       0.48456   0.56621   0.36020  -0.18641
C          C       0.51222   0.43393   0.85961  -0.18565
C          C       0.48509   0.43471   0.86054  -0.18459
C          C       0.51169   0.56645   0.35841  -0.18627
C          C       0.05736   0.87851   0.51900   0.17325
C          C       0.94198   0.12287   0.01860   0.17508
C          C       0.05637   0.12373   0.01501   0.17665
C          C       0.94280   0.87598   0.51390   0.17509
C          C       0.08418   0.89506   0.52202  -0.18443
C          C       0.91551   0.10539   0.02489  -0.19003
C          C       0.08327   0.10744   0.01808  -0.18779
C          C       0.91591   0.89268   0.51328  -0.18592
C          C       0.05741   0.96314   0.51537   0.17773
C          C       0.94247   0.03830   0.01307   0.17609
C          C       0.05699   0.03911   0.01017   0.17664
C          C       0.94276   0.96049   0.50909   0.17683
C          C       0.08419   0.94648   0.52013  -0.18936
C          C       0.91580   0.05405   0.02154  -0.18955
C          C       0.08363   0.05606   0.01536  -0.18791
C          C       0.91589   0.94403   0.51041  -0.18768
C          C       0.65257   0.40787   0.70699   0.04318
C          C       0.34434   0.58802   0.21231   0.04652
C          C       0.65280   0.59719   0.20643   0.04593
C          C       0.34623   0.40415   0.70876   0.04452
C          C       0.66019   0.45463   0.68766  -0.10176
C          C       0.33937   0.54154   0.18924  -0.10407
C          C       0.66090   0.55105   0.18593  -0.10651
C          C       0.34061   0.45069   0.68651  -0.10344
C          C       0.66025   0.36424   0.68131  -0.13307
C          C       0.33474   0.63172   0.18935  -0.13543
C          C       0.65997   0.64149   0.18177  -0.13257
C          C       0.33733   0.36030   0.68510  -0.13092
C          C       0.67440   0.36718   0.63681  -0.14661
C          C       0.32147   0.62930   0.14385  -0.14811
C          C       0.67389   0.63976   0.13683  -0.14366
C          C       0.32405   0.36259   0.63958  -0.14461
C          C       0.67411   0.45730   0.64296  -0.14173
C          C       0.32633   0.53942   0.14353  -0.14023
C          C       0.67474   0.54952   0.14112  -0.14022
C          C       0.32725   0.45277   0.64117  -0.13988
C          C       0.68116   0.41373   0.61648   0.10882
C          C       0.31754   0.58323   0.11973   0.10750
C          C       0.68106   0.59375   0.11542   0.10481
C          C       0.31910   0.40880   0.61667   0.10325
C          C       0.63536   0.40364   0.75050   0.06736
C          C       0.36082   0.59285   0.25679   0.06536
C          C       0.63561   0.59985   0.25020   0.06363
C          C       0.36225   0.39980   0.75384   0.06575
C          C       0.69471   0.41582   0.56709  -0.07994
C          C       0.30481   0.58242   0.06951  -0.08224
C          C       0.69439   0.59176   0.06578  -0.08005
C          C       0.30571   0.41044   0.56709  -0.07540
C          C       0.72235   0.41809   0.56436   0.07374
C          C       0.27713   0.58086   0.06597   0.07718
C          C       0.72204   0.58923   0.06281   0.07675
C          C       0.27804   0.41491   0.56454   0.07291
C          C       0.73467   0.41752   0.51705  -0.03936
C          C       0.26531   0.58284   0.01848  -0.03968
C          C       0.73419   0.58755   0.01543  -0.03898
C          C       0.26560   0.41450   0.51755  -0.03915
C          C       0.71962   0.41476   0.47308   0.07867
C          C       0.28082   0.58699   0.97500   0.07645
C          C       0.71903   0.58919   0.97149   0.07544
C          C       0.28041   0.40983   0.47331   0.07813
C          C       0.69185   0.41236   0.47652  -0.07883
C          C       0.30858   0.58841   0.97905  -0.07555
C          C       0.69126   0.59168   0.97505  -0.07958
C          C       0.30805   0.40562   0.47644  -0.07812
C          C       0.67920   0.41337   0.52328   0.07834
C          C       0.32076   0.58553   0.02651   0.08121
C          C       0.67877   0.59254   0.02213   0.08104
C          C       0.32091   0.40603   0.52319   0.07793
C          C       0.76408   0.41877   0.51459  -0.04112
C          C       0.23597   0.58117   0.01391  -0.04153
C          C       0.76359   0.58449   0.01322  -0.04030
C          C       0.23624   0.41784   0.51488  -0.03767
C          C       0.77713   0.46502   0.51069   0.08000
C          C       0.22348   0.53433   0.00931   0.07945
C          C       0.77618   0.53756   0.01093   0.07763
C          C       0.22374   0.46475   0.51156   0.07637
C          C       0.80492   0.46591   0.50890  -0.08113
C          C       0.19578   0.53223   0.00634  -0.07698
C          C       0.80397   0.53524   0.01116  -0.07888
C          C       0.19594   0.46715   0.50944  -0.07860
C          C       0.81961   0.42103   0.51114   0.08028
C          C       0.18056   0.57659   0.00755   0.07947
C          C       0.81912   0.57928   0.01357   0.07752
C          C       0.18078   0.42301   0.51052   0.07903
C          C       0.80617   0.37531   0.51579  -0.08121
C          C       0.19340   0.62288   0.01247  -0.08265
C          C       0.80611   0.62591   0.01587  -0.07978
C          C       0.19368   0.37651   0.51515  -0.07971
C          C       0.77844   0.37369   0.51742   0.07710
C          C       0.22112   0.62564   0.01543   0.07636
C          C       0.77841   0.62892   0.01542   0.07645
C          C       0.22135   0.37349   0.51699   0.07572
C          C       0.81909   0.51442   0.50605   0.09940
C          C       0.18195   0.48322   0.00339   0.10054
C          C       0.81793   0.48610   0.00913   0.10373
C          C       0.18231   0.51638   0.50707   0.09852
C          C       0.83515   0.53012   0.54602  -0.13815
C          C       0.16773   0.46542   0.04486  -0.13645
C          C       0.82889   0.46512   0.05267  -0.14207
C          C       0.16536   0.53131   0.54610  -0.13958
C          C       0.84903   0.57467   0.54388  -0.10676
C          C       0.15363   0.42105   0.04237  -0.10776
C          C       0.84372   0.42136   0.05060  -0.10307
C          C       0.15164   0.57621   0.54406  -0.10890
C          C       0.84712   0.60552   0.50149   0.04811
C          C       0.15334   0.39264   0.99800   0.04647
C          C       0.84827   0.39730   0.00453   0.04665
C          C       0.15459   0.60824   0.50279   0.04890
C          C       0.83069   0.59056   0.46193  -0.13726
C          C       0.16826   0.40942   0.95707  -0.13654
C          C       0.83671   0.41740   0.96121  -0.13474
C          C       0.17200   0.59415   0.46433  -0.13827
C          C       0.81701   0.54551   0.46409  -0.14228
C          C       0.18225   0.45416   0.95965  -0.14334
C          C       0.82160   0.46100   0.96355  -0.14297
C          C       0.18551   0.54871   0.46634  -0.14132
C          C       0.86230   0.65154   0.49735   0.06956
C          C       0.13708   0.34796   0.99290   0.07144
C          C       0.86546   0.35361   0.00041   0.06937
C          C       0.13941   0.65454   0.49889   0.07020
C          C       0.67612   0.40644   0.42982   0.10610
C          C       0.32504   0.59455   0.93329   0.10044
C          C       0.67507   0.59504   0.92870   0.10143
C          C       0.32419   0.39963   0.43025   0.10503
C          C       0.67043   0.44727   0.39848  -0.14088
C          C       0.32721   0.55636   0.89716  -0.13584
C          C       0.67292   0.55465   0.89508  -0.13954
C          C       0.33007   0.44086   0.39965  -0.14015
C          C       0.65580   0.44111   0.35497  -0.10214
C          C       0.34295   0.56207   0.85500  -0.10497
C          C       0.65769   0.55835   0.85199  -0.10131
C          C       0.34537   0.43532   0.35686  -0.10058
C          C       0.64660   0.39336   0.34114   0.04781
C          C       0.35739   0.60642   0.84780   0.04561
C          C       0.64380   0.60279   0.84152   0.04676
C          C       0.35527   0.38786   0.34330   0.04567
C          C       0.65246   0.35246   0.37216  -0.13232
C          C       0.35502   0.64488   0.88350  -0.13383
C          C       0.64572   0.64307   0.87519  -0.13337
C          C       0.34943   0.34663   0.37384  -0.13285
C          C       0.66690   0.35896   0.41596  -0.14738
C          C       0.33896   0.63915   0.92531  -0.14261
C          C       0.66134   0.63938   0.91783  -0.14365
C          C       0.33416   0.35250   0.41676  -0.14535
C          C       0.63062   0.38543   0.29652   0.06800
C          C       0.37544   0.61253   0.80572   0.06757
C          C       0.62665   0.60728   0.79791   0.07218
C          C       0.37178   0.38084   0.29917   0.06632
C          C       0.82163   0.32808   0.52011   0.10586
C          C       0.17748   0.66970   0.01625   0.10844
C          C       0.82222   0.67223   0.01979   0.10702
C          C       0.17753   0.33029   0.51968   0.10669
C          C       0.82568   0.29675   0.47851  -0.14313
C          C       0.17223   0.69931   0.97399  -0.14522
C          C       0.82884   0.69986   0.97693  -0.14487
C          C       0.17179   0.30016   0.47793  -0.14178
C          C       0.84070   0.25338   0.48245  -0.10558
C          C       0.15700   0.74250   0.97775  -0.10413
C          C       0.84419   0.74265   0.98049  -0.10492
C          C       0.15646   0.25745   0.48278  -0.10561
C          C       0.85170   0.23943   0.52868   0.04782
C          C       0.14684   0.75783   0.02432   0.04625
C          C       0.85330   0.75922   0.02734   0.04378
C          C       0.14667   0.24326   0.52984   0.04551
C          C       0.84703   0.27000   0.57063  -0.13261
C          C       0.15230   0.72855   0.06667  -0.13032
C          C       0.84671   0.73170   0.07020  -0.12913
C          C       0.15249   0.27319   0.57164  -0.13322
C          C       0.83247   0.31406   0.56624  -0.14441
C          C       0.16725   0.68489   0.06259  -0.14553
C          C       0.83143   0.68862   0.06644  -0.14430
C          C       0.16756   0.31634   0.56649  -0.14482
C          C       0.86828   0.19503   0.53398   0.07074
C          C       0.13047   0.80254   0.02978   0.07060
C          C       0.86976   0.80356   0.03239   0.07082
C          C       0.13024   0.19902   0.53597   0.06981
C          C       0.73914   0.42064   0.61088  -0.42147
C          C       0.26071   0.57735   0.11285  -0.41808
C          C       0.73892   0.58815   0.10922  -0.42259
C          C       0.26152   0.42025   0.61114  -0.42376
C          C       0.64948   0.41188   0.52731  -0.42191
C          C       0.35041   0.58454   0.03263  -0.42258
C          C       0.64904   0.59353   0.02634  -0.42248
C          C       0.35060   0.40166   0.52549  -0.42120
C          C       0.73271   0.41384   0.42242  -0.41820
C          C       0.26698   0.59141   0.92524  -0.42353
C          C       0.73248   0.58926   0.92113  -0.42001
C          C       0.26624   0.40844   0.42375  -0.41932
C          C       0.76451   0.32410   0.52193  -0.42177
C          C       0.23440   0.67581   0.02083  -0.42017
C          C       0.76426   0.67866   0.01751  -0.42468
C          C       0.23526   0.32372   0.52100  -0.42323
C          C       0.76118   0.51283   0.50943  -0.42236
C          C       0.24017   0.48747   0.00939  -0.42529
C          C       0.75998   0.49040   0.00821  -0.41941
C          C       0.24019   0.51170   0.51059  -0.42329
C          C       0.84937   0.42131   0.50764  -0.42331
C          C       0.15086   0.57470   0.00339  -0.42118
C          C       0.84891   0.57719   0.01341  -0.42002
C          C       0.15110   0.42441   0.50520  -0.42344
C          C       0.10644   0.90887   0.96441  -0.16215
C          C       0.89801   0.09788   0.46129  -0.15546
C          C       0.10451   0.09530   0.46833  -0.16114
C          C       0.89414   0.90818   0.96595  -0.16560
N          N       0.37705   0.57977   0.77031  -0.28378
N          N       0.62367   0.42213   0.26814  -0.28569
N          N       0.37856   0.41821   0.27165  -0.28161
N          N       0.62726   0.57558   0.76149  -0.28434
N          N       0.87597   0.33244   0.03893  -0.29365
N          N       0.12106   0.66518   0.53066  -0.29573
N          N       0.87982   0.66336   0.53029  -0.29703
N          N       0.12196   0.33295   0.02867  -0.30230
N          N       0.37136   0.55469   0.27860  -0.28231
N          N       0.62693   0.44249   0.77450  -0.27630
N          N       0.37310   0.43827   0.77448  -0.28521
N          N       0.62644   0.56007   0.27110  -0.27728
N          N       0.87758   0.82895   0.99423  -0.29113
N          N       0.12248   0.17257   0.49836  -0.29202
N          N       0.87730   0.17077   0.49582  -0.29480
N          N       0.12313   0.82926   0.99211  -0.29131
N          N       0.95760   0.08106   0.01174  -0.26001
N          N       0.04189   0.92086   0.51510  -0.26124
N          N       0.95831   0.91813   0.51082  -0.26077
N          N       0.04119   0.08124   0.01035  -0.26119
N          N       0.46025   0.57707   0.52044  -0.41858
N          N       0.54015   0.42376   0.01753  -0.41866
N          N       0.46012   0.42599   0.01996  -0.41856
N          N       0.54017   0.57392   0.51584  -0.41862
N          N       0.49959   0.56652   0.43959  -0.26334
N          N       0.49940   0.43372   0.94041  -0.26297
N          N       0.50104   0.58592   0.59614  -0.26223
N          N       0.50089   0.41441   0.09659  -0.26369
N          N       0.00007   0.84426   0.51977  -0.41828
N          N       0.99897   0.15678   0.01838  -0.41971
N          N       0.00015   0.99498   0.51213  -0.41918
N          N      -0.00004   0.00538   0.00913  -0.41906

