data_crystal

_audit_creation_method 'AiiDA-DDEC plugin'

_cell_length_a        69.17825
_cell_length_b        69.32339
_cell_length_c         9.38135

_cell_angle_alpha     121.04714
_cell_angle_beta     54.82523
_cell_angle_gamma     120.13252

_symmetry_space_group_name_Hall 'P 1'
_symmetry_space_group_name_H-M  'P 1'

loop_
_symmetry_equiv_pos_as_xyz
 'x,y,z'

loop_
_atom_site_label
_atom_site_type_symbol
_atom_site_fract_x
_atom_site_fract_y
_atom_site_fract_z
_atom_site_charge
H          H       0.18836   0.45769   0.04844   0.11866
H          H       0.53734   0.73586   0.06777   0.12347
H          H       0.26084   0.81217   0.08030   0.11499
H          H       0.80256   0.54644   0.09336   0.11484
H          H       0.45958   0.26228   0.93372   0.12296
H          H       0.73716   0.18706   0.92744   0.11501
H          H       0.22749   0.38182   0.98598   0.11913
H          H       0.61791   0.84057   0.96429   0.11983
H          H       0.15489   0.76989   0.99060   0.12381
H          H       0.77310   0.61474   0.97988   0.12122
H          H       0.38280   0.15429   0.98149   0.12099
H          H       0.84412   0.22598   0.98331   0.11919
H          H       0.24142   0.52859   0.16844   0.10767
H          H       0.46707   0.73266   0.19815   0.11060
H          H       0.26770   0.75710   0.15165   0.09983
H          H       0.74011   0.47841   0.11496   0.10565
H          H       0.53057   0.26364   0.79175   0.10652
H          H       0.73506   0.24233   0.83186   0.10136
H          H       0.23248   0.55761   0.15433   0.11040
H          H       0.43906   0.69206   0.17908   0.11500
H          H       0.31006   0.76762   0.10819   0.09813
H          H       0.75207   0.44714   0.06839   0.11693
H          H       0.55944   0.30402   0.81188   0.11439
H          H       0.69294   0.23524   0.88217   0.10137
H          H       0.18412   0.50175   0.90062   0.09889
H          H       0.50142   0.66486   0.83017   0.10920
H          H       0.33499   0.82038   0.88251   0.09675
H          H       0.82865   0.48895   0.89393   0.10447
H          H       0.49788   0.33267   0.18602   0.10660
H          H       0.66352   0.18403   0.13790   0.10165
H          H       0.19679   0.47282   0.87855   0.09584
H          H       0.52943   0.70499   0.82274   0.10424
H          H       0.29393   0.80797   0.89798   0.09049
H          H       0.81722   0.51927   0.92275   0.09822
H          H       0.46930   0.29249   0.17666   0.10420
H          H       0.70430   0.19346   0.11216   0.08936
H          H       0.24448   0.36962   0.02059   0.11586
H          H       0.62630   0.87741   0.06920   0.11763
H          H       0.13742   0.75608   0.75244   0.11706
H          H       0.75390   0.62878   0.98999   0.11505
H          H       0.36150   0.12819   0.09982   0.11641
H          H       0.87779   0.24335   0.96157   0.11187
H          H       0.26869   0.35133   0.00382   0.10383
H          H       0.64371   0.91826   0.07094   0.11095
H          H       0.09750   0.73469   0.72452   0.10582
H          H       0.73016   0.64634   0.99586   0.10438
H          H       0.34339   0.08837   0.12115   0.10749
H          H       0.91794   0.26693   0.97243   0.10394
H          H       0.21039   0.28628  -0.00311   0.11192
H          H       0.71549   0.91828   0.91414   0.11343
H          H       0.06555   0.78857   0.20280   0.11536
H          H       0.78838   0.71167   0.00236   0.11372
H          H       0.29182   0.07189   0.92710   0.11173
H          H       0.92009   0.21135   0.04174   0.11020
H          H       0.18599   0.30395   0.00915   0.10247
H          H       0.69827   0.87674   0.90603   0.10838
H          H       0.10551   0.80968   0.23143   0.10854
H          H       0.81253   0.69433   0.99506   0.10460
H          H       0.31058   0.11150   0.89808   0.10512
H          H       0.87942   0.18746   0.03496   0.10385
H          H       0.36097   0.59791   0.93150   0.11225
H          H       0.39843   0.75264   0.96600   0.10957
H          H       0.24368   0.64570   0.04814   0.11262
H          H       0.63709   0.39881   0.10012   0.11121
H          H       0.60350   0.25042   0.01736   0.11320
H          H       0.75543   0.37297   0.24489   0.10679
H          H       0.42574   0.60922   0.07016   0.11641
H          H       0.39273   0.82648   0.04415   0.10998
H          H       0.17743   0.56964   0.00304   0.10425
H          H       0.57632   0.38677   0.91629   0.11579
H          H       0.60891   0.17856   0.97411   0.11138
H          H       0.82421   0.41582   0.79868   0.10681
H          H       0.23864   0.24049   0.87099   0.11550
H          H       0.75084   0.98745   0.03895   0.11776
H          H       0.01179   0.77310   0.01152   0.12344
H          H       0.76527   0.75543   0.05537   0.11579
H          H       0.24511   0.01232   0.99428   0.11874
H          H       0.98430   0.22923   0.00209   0.12108
H          H       0.30570   0.28537   0.07576   0.11439
H          H       0.71749   0.02129   0.90049   0.11974
H          H       0.97305   0.69080   0.02225   0.12227
H          H       0.69002   0.71230   0.94399   0.11388
H          H       0.28424   0.97276   0.03104   0.11876
H          H       0.02916   0.31091   0.98057   0.12103
H          H       0.16588   0.31912   0.05670   0.09981
H          H       0.67947   0.85241   0.03511   0.10243
H          H       0.14688   0.82943   0.01587   0.10912
H          H       0.83011   0.68117   0.00074   0.10014
H          H       0.31596   0.14652   0.99575   0.10109
H          H       0.85114   0.16719   0.98018   0.10225
H          H       0.26845   0.45821   0.93099   0.13119
H          H       0.54397   0.79477   0.87749   0.12841
H          H       0.20124   0.73219   0.97107   0.13052
H          H       0.73812   0.53227   0.93581   0.12743
H          H       0.45701   0.19979   0.07490   0.13349
H          H       0.80021   0.26505   0.01225   0.12987
H          H       0.17613   0.40870   0.00702   0.29349
H          H       0.58214   0.77186   0.10267   0.29211
H          H       0.22511   0.82358   0.08957   0.28943
H          H       0.81411   0.59370   0.10549   0.28889
H          H       0.41487   0.22620   0.89696   0.29559
H          H       0.77145   0.17407   0.92574   0.28675
H          H       0.16185   0.37321   0.98915   0.09446
H          H       0.62282   0.78607   0.01966   0.09792
H          H       0.21125   0.83638   0.02527   0.09155
H          H       0.83680   0.62358   0.00669   0.09799
H          H       0.37453   0.21155   0.98506   0.09763
H          H       0.78541   0.16174  -0.00258   0.09309
H          H       0.27867   0.48856   0.11968   0.10028
H          H       0.51434   0.80347   0.01510   0.10707
H          H       0.19488   0.72011   0.15895   0.11124
H          H       0.70501   0.51603   0.17402   0.11257
H          H       0.49215   0.19420   0.87969   0.10601
H          H       0.80701   0.27965   0.84772   0.11069
H          H       0.31716   0.52085   0.11602   0.10770
H          H       0.47961   0.80891   0.04765   0.11622
H          H       0.19064   0.67982   0.11035   0.11657
H          H       0.66760   0.48196   0.16725   0.11892
H          H       0.52678   0.19080   0.87180   0.11368
H          H       0.81145   0.31964   0.89416   0.11705
H          H       0.30586   0.55027   0.87318   0.09403
H          H       0.44042   0.73587   0.99063   0.10601
H          H       0.26942   0.69429   0.81319   0.10478
H          H       0.71391   0.43566   0.79036   0.10912
H          H       0.55162   0.26632   0.09366   0.10737
H          H       0.73221   0.30341   0.14811   0.10763
H          H       0.27014   0.51617   0.84661   0.09971
H          H       0.47673   0.72910   0.92068   0.09903
H          H       0.27368   0.73319   0.84110   0.11801
H          H       0.75105   0.46950   0.78953   0.10873
H          H       0.51566   0.26929   0.12334   0.09920
H          H       0.72752   0.26528   0.13416   0.11617
H          H       0.13169   0.30235   0.09952   0.10331
H          H       0.69695   0.84032   0.06559   0.10664
H          H       0.16542   0.85816   0.94252   0.11380
H          H       0.86373   0.69823   0.96259   0.11072
H          H       0.29651   0.16013   0.00597   0.10342
H          H       0.83193   0.13871   0.06278   0.10712
H          H       0.09138   0.27815   0.09157   0.10692
H          H       0.72070   0.82309   0.06233   0.10096
H          H       0.18316   0.89873   0.93835   0.10659
H          H       0.90541   0.72099   0.94563   0.10840
H          H       0.27290   0.17739   0.00796   0.10287
H          H       0.81448   0.09746   0.05447   0.10421
H          H       0.09244   0.32862   0.94674   0.11115
H          H       0.66786   0.75502   0.97592   0.11455
H          H       0.23833   0.91132   0.08630   0.11579
H          H       0.90776   0.66744   0.03140   0.11313
H          H       0.33398   0.24003   0.95538   0.10934
H          H       0.75825   0.08728   0.92782   0.11881
H          H       0.13309   0.35285   0.94983   0.10514
H          H       0.64416   0.77196   0.97363   0.10187
H          H       0.21973   0.87098   0.10191   0.10226
H          H       0.86591   0.64422   0.05028   0.10307
H          H       0.35826   0.22294   0.95048   0.09810
H          H       0.77683   0.12791   0.91956   0.09937
H          H       0.39362   0.63547   0.95228   0.11938
H          H       0.36295   0.75216   0.96020   0.11660
H          H       0.24560   0.61132   0.05467   0.11257
H          H       0.60443   0.36058   0.06782   0.11808
H          H       0.63948   0.25186   0.02161   0.11537
H          H       0.75106   0.40586   0.23672   0.11485
H          H       0.39162   0.57182   0.06169   0.12204
H          H       0.42837   0.82726   0.05503   0.11764
H          H       0.17556   0.60374   0.99281   0.11620
H          H       0.60958   0.42464   0.94193   0.12057
H          H       0.57236   0.17706   0.96962   0.11787
H          H       0.82805   0.38208   0.79810   0.11543
H          H       0.26048   0.21916   0.85298   0.10785
H          H       0.76925   0.02914   0.05638   0.10991
H          H       0.97073   0.75052   0.00623   0.11248
H          H       0.74435   0.77732   0.06947   0.10552
H          H       0.22353   0.97154   0.00636   0.11228
H          H       0.02737   0.24749   0.97361   0.11319
H          H       0.28358   0.30672   0.09508   0.09996
H          H       0.69862   0.97916   0.88575   0.11705
H          H       0.01424   0.71362   0.02764   0.11593
H          H       0.71096   0.69030   0.92920   0.10339
H          H       0.30589   0.01361   0.01933   0.11636
H          H       0.98640   0.29270   0.00893   0.11349
H          H       0.75564   0.33798   0.07183   0.06520
H          H       0.67075   0.41848   0.91408   0.06381
H          H       0.57465   0.24607   0.02386   0.05335
H          H       0.24598   0.65664   0.85051   0.06261
H          H       0.33406   0.57275   0.98337   0.05743
H          H       0.41907   0.76052   0.08076   0.05488
H          H       0.81820   0.44936   0.88863   0.06385
H          H       0.53974   0.35967   0.10119   0.06909
H          H       0.63518   0.19257   0.10677   0.06843
H          H       0.18707   0.54158   0.97500   0.05988
H          H       0.45986   0.63772   0.92558   0.07359
H          H       0.36504   0.81423   0.91698   0.06655
H          H       0.26824   0.21016   0.01103   0.06391
H          H       0.78670   0.05912   0.99260   0.06377
H          H       0.94257   0.72539   0.93061   0.06591
H          H       0.72713   0.79014   0.03576   0.05775
H          H       0.21294   0.93640   0.96869   0.06386
H          H       0.05548   0.27230   0.06706   0.06657
H          H       0.27388   0.31759   0.98156   0.06150
H          H       0.67708   0.95460   0.05734   0.07018
H          H       0.05446   0.73065   0.83794   0.06772
H          H       0.72513   0.67934   0.00987   0.05855
H          H       0.31067   0.05124   0.12046   0.07046
H          H       0.95392   0.27135   0.97867   0.06706
H          H       0.19802   0.45382   0.41105   0.11643
H          H       0.54793   0.73377   0.45229   0.12585
H          H       0.26552   0.80682   0.49652   0.12198
H          H       0.81108   0.54233   0.45207   0.12133
H          H       0.45179   0.26946   0.58803   0.12596
H          H       0.73529   0.19184   0.49343   0.12160
H          H       0.22814   0.38372   0.50325   0.12031
H          H       0.61782   0.84546   0.49777   0.11865
H          H       0.15602   0.77133   0.48019   0.11982
H          H       0.77294   0.61800   0.49723   0.11736
H          H       0.38364   0.15689   0.50147   0.11721
H          H       0.84558   0.22856   0.49739   0.12111
H          H       0.26028   0.52120   0.39827   0.10562
H          H       0.48855   0.72100   0.32813   0.09898
H          H       0.28110   0.74112   0.32131   0.11372
H          H       0.75376   0.47209   0.38005   0.10840
H          H       0.51119   0.28290   0.69765   0.09563
H          H       0.71984   0.25625   0.65875   0.11559
H          H       0.24833   0.55367   0.46116   0.11684
H          H       0.45658   0.68333   0.36522   0.10051
H          H       0.32085   0.75033   0.31753   0.11363
H          H       0.76157   0.44328   0.40432   0.10361
H          H       0.54264   0.32102   0.66529   0.10253
H          H       0.67872   0.24602   0.67834   0.11305
H          H       0.17153   0.51234   0.63729   0.10673
H          H       0.48381   0.68148   0.67045   0.09677
H          H       0.32034   0.82271   0.63134   0.10169
H          H       0.81542   0.49827   0.60452   0.10006
H          H       0.51509   0.32170   0.35725   0.09613
H          H       0.67971   0.17408   0.36247   0.10227
H          H       0.18283   0.48092   0.59685   0.09904
H          H       0.51457   0.71951   0.64473   0.09422
H          H       0.27926   0.81244   0.65834   0.09811
H          H       0.80481   0.52757   0.61090   0.09737
H          H       0.48486   0.28336   0.38143   0.09739
H          H       0.72206   0.18519   0.32003   0.09452
H          H       0.25009   0.36304   0.39866   0.11271
H          H       0.63513   0.87424   0.43460   0.11527
H          H       0.13573   0.75306   0.28921   0.11792
H          H       0.75077   0.63677   0.58309   0.11420
H          H       0.36905   0.12557   0.51855   0.11639
H          H       0.87153   0.24953   0.60840   0.11839
H          H       0.27345   0.34537   0.39749   0.10323
H          H       0.65322   0.91414   0.41215   0.10408
H          H       0.09465   0.73074   0.28183   0.10726
H          H       0.72762   0.65447   0.58216   0.10370
H          H       0.35245   0.08484   0.51392   0.11089
H          H       0.91293   0.27187   0.60213   0.10751
H          H       0.20602   0.29448   0.61923   0.11030
H          H       0.70863   0.92919   0.56453   0.11608
H          H       0.07174   0.79359   0.62246   0.11352
H          H       0.79388   0.70958   0.41440   0.11124
H          H       0.28732   0.07707   0.50793   0.11265
H          H       0.92637   0.20764   0.43719   0.11341
H          H       0.18214   0.31292   0.63149   0.10786
H          H       0.69038   0.88984   0.59539   0.10346
H          H       0.11243   0.81589   0.63751   0.10796
H          H       0.81763   0.69102   0.40161   0.10181
H          H       0.30403   0.11787   0.50903   0.10768
H          H       0.88537   0.18497   0.43255   0.10581
H          H       0.35854   0.60326   0.46973   0.11665
H          H       0.40290   0.74825   0.41967   0.10965
H          H       0.25071   0.64143   0.43690   0.10904
H          H       0.64783   0.39618   0.43338   0.11289
H          H       0.61017   0.24218   0.40023   0.10759
H          H       0.74585   0.36362   0.65869   0.11097
H          H       0.43071   0.60819   0.49319   0.11292
H          H       0.39228   0.81838   0.48257   0.10927
H          H       0.17839   0.57066   0.53554   0.10919
H          H       0.56717   0.39474   0.55612   0.11088
H          H       0.60264   0.18457   0.60436   0.10829
H          H       0.82135   0.42593   0.42598   0.10711
H          H       0.23617   0.24341   0.43312   0.11709
H          H       0.75407   0.98900   0.50235   0.11914
H          H       0.01536   0.77107   0.47339   0.12230
H          H       0.76684   0.75906   0.55623   0.11438
H          H       0.24972   0.01101   0.45090   0.11949
H          H       0.98175   0.23357   0.58274   0.12617
H          H       0.30995   0.28759   0.56183   0.11534
H          H       0.71463   0.02730   0.45676   0.12187
H          H       0.97053   0.69270   0.56142   0.12138
H          H       0.69159   0.71493   0.44481   0.11444
H          H       0.28439   0.97677   0.57601   0.11885
H          H       0.03281   0.30675   0.41418   0.12399
H          H       0.16828   0.31948   0.53113   0.10454
H          H       0.68126   0.85625   0.54517   0.09888
H          H       0.15269   0.83002   0.46062   0.10645
H          H       0.82983   0.68455   0.51387   0.10784
H          H       0.31583   0.15067   0.53756   0.10071
H          H       0.84805   0.17128   0.54658   0.10545
H          H       0.26234   0.46632   0.56489   0.12801
H          H       0.53674   0.80438   0.52268   0.13574
H          H       0.19472   0.73323   0.52494   0.12978
H          H       0.73055   0.54160   0.57521   0.13070
H          H       0.46828   0.19640   0.42634   0.13500
H          H       0.80647   0.26476   0.44090   0.12964
H          H       0.18709   0.40575   0.38422   0.29078
H          H       0.59261   0.76942   0.49162   0.29794
H          H       0.23168   0.82087   0.51063   0.29143
H          H       0.82343   0.59087   0.48785   0.29568
H          H       0.40657   0.23402   0.54849   0.30049
H          H       0.76832   0.18006   0.51116   0.29273
H          H       0.16476   0.37478   0.47013   0.10003
H          H       0.62715   0.78886   0.49146   0.09309
H          H       0.21014   0.83847   0.56178   0.09666
H          H       0.83902   0.62567   0.48603   0.09535
H          H       0.37842   0.21113   0.44522   0.09978
H          H       0.78983   0.16200   0.45518   0.09798
H          H       0.29477   0.48399   0.35034   0.11000
H          H       0.52167   0.79228   0.34280   0.10280
H          H       0.20700   0.70536   0.36786   0.09577
H          H       0.72169   0.50913   0.37323   0.09840
H          H       0.48120   0.20379   0.59719   0.10408
H          H       0.79162   0.29205   0.62770   0.09437
H          H       0.33170   0.51782   0.36649   0.11840
H          H       0.48665   0.79743   0.36962   0.11069
H          H       0.20060   0.66867   0.38965   0.11917
H          H       0.68323   0.47701   0.37912   0.10494
H          H       0.51510   0.19783   0.57304   0.11164
H          H       0.79646   0.32994   0.63118   0.11455
H          H       0.28576   0.56416   0.72304   0.11195
H          H       0.43541   0.74886   0.67582   0.10024
H          H       0.25177   0.70653   0.63195   0.09359
H          H       0.68778   0.45489   0.70713   0.09255
H          H       0.56542   0.25827   0.39204   0.10098
H          H       0.74768   0.29315   0.36545   0.09866
H          H       0.24881   0.53027   0.72344   0.10943
H          H       0.46982   0.74560   0.66796   0.10110
H          H       0.25491   0.74385   0.63946   0.10067
H          H       0.72571   0.48759   0.70896   0.10033
H          H       0.53243   0.26190   0.38548   0.10285
H          H       0.74600   0.25519   0.33807   0.10164
H          H       0.14396   0.29778   0.41780   0.11290
H          H       0.70316   0.84125   0.49764   0.10681
H          H       0.16106   0.86490   0.55424   0.11030
H          H       0.86746   0.69835   0.41898   0.10637
H          H       0.30477   0.15884   0.41620   0.10920
H          H       0.84256   0.13415   0.37914   0.10962
H          H       0.10263   0.27364   0.42612   0.10590
H          H       0.72676   0.82354   0.49297   0.10052
H          H       0.17896   0.90593   0.55876   0.10976
H          H       0.90910   0.72055   0.40214   0.10704
H          H       0.28218   0.17599   0.40431   0.10022
H          H       0.82530   0.09256   0.36223   0.10822
H          H       0.08611   0.33557   0.57999   0.11474
H          H       0.66595   0.76015   0.52969   0.11294
H          H       0.24721   0.90819   0.48479   0.11544
H          H       0.90699   0.67039   0.55124   0.11180
H          H       0.33103   0.24492   0.54258   0.11560
H          H       0.75220   0.09586   0.58622   0.11543
H          H       0.12681   0.36013   0.58668   0.10498
H          H       0.64161   0.77824   0.54652   0.09987
H          H       0.22985   0.86669   0.47212   0.10172
H          H       0.86451   0.64811   0.57577   0.10197
H          H       0.35269   0.22822   0.56905   0.09943
H          H       0.76946   0.13818   0.61034   0.10103
H          H       0.39385   0.63959   0.46431   0.12181
H          H       0.36641   0.74438   0.40265   0.11724
H          H       0.25366   0.60831   0.45419   0.11520
H          H       0.61188   0.36025   0.46780   0.11897
H          H       0.64463   0.24619   0.43692   0.12095
H          H       0.74241   0.39677   0.64867   0.11305
H          H       0.39560   0.57173   0.49788   0.12308
H          H       0.42837   0.82234   0.50245   0.12095
H          H       0.17494   0.60389   0.52346   0.12004
H          H       0.60295   0.43096   0.52663   0.12369
H          H       0.56710   0.18127   0.58131   0.11752
H          H       0.82496   0.39243   0.43310   0.11560
H          H       0.25927   0.22180   0.39537   0.10428
H          H       0.77355   0.03069   0.51503   0.11539
H          H       0.97436   0.74952   0.46930   0.11505
H          H       0.74522   0.78033   0.57156   0.10561
H          H       0.22993   0.96949   0.44868   0.11243
H          H       0.02233   0.25544   0.59821   0.10789
H          H       0.28700   0.30942   0.59603   0.10823
H          H       0.69481   0.98552   0.44766   0.11392
H          H       0.01197   0.71467   0.56580   0.11428
H          H       0.71317   0.69351   0.42980   0.10705
H          H       0.30409   0.01800   0.57865   0.11594
H          H       0.99257   0.28464   0.39432   0.11066
H          H       0.76114   0.33301   0.44396   0.05624
H          H       0.65577   0.43326   0.63212   0.06306
H          H       0.57843   0.24339   0.47991   0.05671
H          H       0.23468   0.66817   0.59656   0.04914
H          H       0.32827   0.58111   0.61830   0.05813
H          H       0.41934   0.76348   0.60745   0.05643
H          H       0.80825   0.45820   0.56404   0.06200
H          H       0.55182   0.35361   0.39900   0.06835
H          H       0.64362   0.18518   0.47055   0.06238
H          H       0.18328   0.55326   0.64743   0.06281
H          H       0.44654   0.65094   0.63832   0.07140
H          H       0.35411   0.81125   0.54967   0.05574
H          H       0.27549   0.20918   0.43746   0.05477
H          H       0.79134   0.05784   0.40021   0.06606
H          H       0.94569   0.72468   0.40138   0.06647
H          H       0.73104   0.79124   0.49031   0.05864
H          H       0.21100   0.94165   0.55515   0.06719
H          H       0.06311   0.26936   0.46933   0.06759
H          H       0.27588   0.31586   0.44099   0.06270
H          H       0.68362   0.95149   0.42531   0.06652
H          H       0.05333   0.72835   0.37421   0.06953
H          H       0.72521   0.68539   0.55116   0.06176
H          H       0.32032   0.04867   0.52518   0.07064
H          H       0.95161   0.27389   0.56234   0.06882
C          C       0.20607   0.45792   0.01902  -0.23562
C          C       0.53887   0.74860   0.02478  -0.23937
C          C       0.24806   0.79464   0.05609  -0.24320
C          C       0.78894   0.54289   0.05298  -0.23031
C          C       0.45904   0.24875   0.96561  -0.23773
C          C       0.75076   0.20413   0.94620  -0.24790
C          C       0.20898   0.43794   0.99538   0.14919
C          C       0.55915   0.76843   0.00468   0.13830
C          C       0.22741   0.79114   0.04449   0.14483
C          C       0.78787   0.56077   0.03325   0.14540
C          C       0.43933   0.22834   0.97852   0.13667
C          C       0.77126   0.20678   0.95525   0.14541
C          C       0.24876   0.47918   0.98337   0.01872
C          C       0.51993   0.76341   0.95826   0.01683
C          C       0.23438   0.75252   0.01646   0.01525
C          C       0.75232   0.51691   0.99427   0.01525
C          C       0.47904   0.23263   0.01261   0.01551
C          C       0.76645   0.24609   0.97379   0.01608
C          C       0.20891   0.37096  -0.00021  -0.15692
C          C       0.62778   0.83507   0.98716  -0.15017
C          C       0.16172   0.78828  -0.00012  -0.13459
C          C       0.79054   0.62626   0.98782  -0.15237
C          C       0.37135   0.16101   0.98444  -0.14847
C          C       0.83734   0.20811   0.98467  -0.13318
C          C       0.19858   0.34877   0.02091   0.07481
C          C       0.65019   0.84973   0.00028   0.06143
C          C       0.14821   0.79839   0.00382   0.07547
C          C       0.79971   0.64956   0.98990   0.07432
C          C       0.34785   0.14730   0.98959   0.06599
C          C       0.85081   0.19869   0.98870   0.07316
C          C       0.22032   0.49803   0.02057   0.06836
C          C       0.50055   0.72198   0.00438   0.07459
C          C       0.27709   0.78140   0.02595   0.06414
C          C       0.77765   0.50145   0.01825   0.07280
C          C       0.49770   0.27486   0.98644   0.07544
C          C       0.72329   0.21884   0.97046   0.06686
C          C       0.13600   0.32963   0.02423   0.06467
C          C       0.66807   0.80776   0.02399   0.07039
C          C       0.19118   0.86108   0.02113   0.06204
C          C       0.86106   0.66887   0.00457   0.06484
C          C       0.32938   0.19006   0.97996   0.07447
C          C       0.80600   0.13676   0.99124   0.06413
C          C       0.22971   0.52243   0.10176  -0.12252
C          C       0.47480   0.71796   0.11090  -0.11696
C          C       0.28230   0.77040   0.08618  -0.12977
C          C       0.75954   0.48077   0.06128  -0.12634
C          C       0.52339   0.27862   0.88100  -0.11755
C          C       0.71944   0.23001   0.90278  -0.13279
C          C       0.22416   0.53894   0.09862  -0.10939
C          C       0.45895   0.69521   0.10390  -0.10790
C          C       0.30590   0.77637   0.06532  -0.10913
C          C       0.76622   0.46305   0.03670  -0.09975
C          C       0.53961   0.30126   0.89128  -0.10261
C          C       0.69605   0.22594   0.92830  -0.10934
C          C       0.20776   0.53202   0.02580   0.05213
C          C       0.46816   0.67561   0.00058   0.05930
C          C       0.32550   0.79433   0.99147   0.05693
C          C       0.79111   0.46542   0.97413   0.05854
C          C       0.53090   0.32123   0.00380   0.05318
C          C       0.67534   0.20932   0.01299   0.05388
C          C       0.19697   0.50774   0.95659  -0.13886
C          C       0.49393   0.67964   0.90565  -0.13383
C          C       0.32033   0.80629   0.93933  -0.13640
C          C       0.80933   0.48636   0.93795  -0.14473
C          C       0.50516   0.31759   0.10173  -0.13020
C          C       0.67912   0.19701   0.07159  -0.12977
C          C       0.20383   0.49134   0.94840  -0.14102
C          C       0.50963   0.70233   0.90395  -0.13658
C          C       0.29681   0.79960   0.95297  -0.14679
C          C       0.80253   0.50376   0.95818  -0.14262
C          C       0.48902   0.29485   0.09471  -0.14197
C          C       0.70246   0.20200   0.05288  -0.14724
C          C       0.23670   0.35135   0.01556  -0.12789
C          C       0.64590   0.88603   0.03418  -0.12860
C          C       0.12156   0.76294   0.85229  -0.13513
C          C       0.76186   0.64688   0.99158  -0.12634
C          C       0.34649   0.11595   0.05900  -0.13585
C          C       0.88652   0.23605   0.98151  -0.12588
C          C       0.25041   0.34105   0.00632  -0.13238
C          C       0.65567   0.90929   0.03718  -0.12807
C          C       0.09917   0.75113   0.83648  -0.12177
C          C       0.74835   0.65681   0.99503  -0.13201
C          C       0.33621   0.09345   0.07190  -0.12036
C          C       0.90948   0.24944   0.98624  -0.12291
C          C       0.24087   0.31756   0.00210   0.05740
C          C       0.68083   0.92141  -0.00299   0.04707
C          C       0.07892   0.76056   0.96016   0.04701
C          C       0.75791   0.68017   0.99622   0.05701
C          C       0.31611   0.07737   0.02708   0.04372
C          C       0.92193   0.24060   0.00597   0.05127
C          C       0.21734   0.30457   0.00422  -0.09142
C          C       0.69600   0.90905   0.94788  -0.10828
C          C       0.08144   0.78176   0.10430  -0.10260
C          C       0.78130   0.69341  -0.00301  -0.09262
C          C       0.30709   0.08439   0.96482  -0.11454
C          C       0.91054   0.21807   0.02449  -0.10428
C          C       0.20386   0.31478   0.01182  -0.12898
C          C       0.68618   0.88585   0.94453  -0.13897
C          C       0.10376   0.79352   0.11917  -0.13950
C          C       0.79464   0.68342   0.99366  -0.12685
C          C       0.31742   0.10682   0.95181  -0.14056
C          C       0.88766   0.20482   0.02037  -0.13348
C          C       0.37347   0.58209   0.00016   0.19671
C          C       0.41578   0.79032   0.01582   0.19894
C          C       0.21004   0.62683   0.01081   0.20510
C          C       0.62625   0.41420   0.01653   0.19463
C          C       0.58485   0.21346   0.99572   0.19703
C          C       0.79138   0.37396   0.01132   0.20398
C          C       0.37475   0.60024   0.96484  -0.17417
C          C       0.39732   0.76890   0.98425  -0.17495
C          C       0.22988   0.62872   0.02832  -0.17398
C          C       0.62426   0.39587   0.05425  -0.16886
C          C       0.60402   0.23475   0.01323  -0.17384
C          C       0.77006   0.38170   0.14179  -0.16799
C          C       0.41188   0.60660   0.03565  -0.17204
C          C       0.39412   0.81036   0.02663  -0.17173
C          C       0.19224   0.58609   0.00931  -0.16578
C          C       0.58937   0.38950   0.95931  -0.17140
C          C       0.60731   0.19429   0.98642  -0.17107
C          C       0.80897   0.40629   0.89465  -0.16516
C          C       0.25955   0.27486   0.98454   0.20506
C          C       0.72308   0.98056   0.96675   0.19859
C          C       0.01619   0.74466   0.01429   0.20184
C          C       0.73960   0.72158   0.99429   0.20869
C          C       0.27670   0.01608   0.00995   0.20046
C          C       0.98216   0.25943   0.00867   0.19582
C          C       0.25305   0.25010   0.91914  -0.13982
C          C       0.74371   0.99493   0.00775  -0.14975
C          C       0.00322   0.75507   0.01331  -0.15385
C          C       0.74879   0.74620   0.03058  -0.13883
C          C       0.25341   0.00361   0.00491  -0.14410
C          C       0.99444   0.24712  -0.00239  -0.14605
C          C       0.29094   0.27575   0.03172  -0.14546
C          C       0.72426   0.01374   0.93433  -0.13875
C          C       0.98200   0.70857   0.01442  -0.14822
C          C       0.70640   0.72148   0.97012  -0.13978
C          C       0.27574   0.98154   0.02313  -0.13906
C          C       0.01905   0.29312   0.98783  -0.14646
C          C       0.20643   0.40346   0.97884   0.28514
C          C       0.59419   0.79788   0.98577   0.29577
C          C       0.19768   0.79213   0.02008   0.29547
C          C       0.79278   0.59303   0.00266   0.28914
C          C       0.40491   0.19843   0.99042   0.29461
C          C       0.80083   0.20495   0.97604   0.29557
C          C       0.19541   0.37998   0.99306   0.01034
C          C       0.61775   0.81236  -0.00168   0.02246
C          C       0.18420   0.80223   0.01362   0.02222
C          C       0.80358   0.61709  -0.00186   0.01573
C          C       0.38090   0.18418   0.98348   0.02072
C          C       0.81406   0.19465   0.98332   0.02445
C          C       0.17429   0.33611   0.03743  -0.17647
C          C       0.66254   0.84081   0.02012  -0.16870
C          C       0.15760   0.82225   0.01646  -0.18247
C          C       0.82269   0.66309  -0.00259  -0.17370
C          C       0.33442   0.15703   0.98767  -0.17133
C          C       0.84055   0.17510   0.98534  -0.17804
C          C       0.23148   0.43792   0.96450   0.14835
C          C       0.56143   0.78484   0.94564   0.13775
C          C       0.21021   0.76863   0.01386   0.15010
C          C       0.77007   0.55711   0.98444   0.14613
C          C       0.43817   0.21078   0.02078   0.13763
C          C       0.78933   0.22883   0.97834   0.14417
C          C       0.25114   0.45842   0.95674  -0.19456
C          C       0.54196   0.78195   0.92152  -0.20377
C          C       0.21382   0.74969   0.00180  -0.18377
C          C       0.75207   0.53529   0.97106  -0.19950
C          C       0.45796   0.21308   0.03927  -0.20015
C          C       0.78678   0.24802   0.98589  -0.18034
C          C       0.22587   0.47885   0.00888   0.04016
C          C       0.51926   0.74540  -0.00219   0.02653
C          C       0.25261   0.77541   0.03531   0.03619
C          C       0.77223   0.52017   0.02429   0.03223
C          C       0.47886   0.25134   0.98604   0.02744
C          C       0.74742   0.22368   0.96096   0.03638
C          C       0.16063   0.34424   0.02405   0.06963
C          C       0.65360   0.81766   0.02205   0.07874
C          C       0.18060   0.83640   0.02184   0.06432
C          C       0.83652   0.65427   0.00288   0.06717
C          C       0.34375   0.17996   0.98148   0.07527
C          C       0.81704   0.16132   0.98825   0.06602
C          C       0.17168   0.36651   0.00280  -0.19278
C          C       0.63059   0.80385   0.01591  -0.17062
C          C       0.19342   0.82587   0.02187  -0.18306
C          C       0.82652   0.63100   0.00403  -0.18981
C          C       0.36712   0.19342   0.98156  -0.16955
C          C       0.80391   0.17165   0.98942  -0.18260
C          C       0.27098   0.49975   0.98496   0.07403
C          C       0.49871   0.76560   0.96889   0.07237
C          C       0.23455   0.73022   0.00377   0.08005
C          C       0.73083   0.49542   0.98734   0.07333
C          C       0.50066   0.23193   0.00610   0.07254
C          C       0.76695   0.26876   0.98706   0.07509
C          C       0.21303   0.33842   0.01850   0.07115
C          C       0.66078   0.87389   0.99165   0.07575
C          C       0.12424   0.78455   0.99218   0.07773
C          C       0.78544   0.65988   0.98995   0.07108
C          C       0.33726   0.12325  -0.00006   0.06986
C          C       0.87510   0.21324  -0.00315   0.07134
C          C       0.28510   0.50160   0.05862  -0.13821
C          C       0.49869   0.78807   0.00309  -0.13007
C          C       0.21131   0.71435   0.07898  -0.13458
C          C       0.70690   0.49836   0.09053  -0.13732
C          C       0.50461   0.20991   0.93415  -0.13399
C          C       0.79041   0.28500   0.92041  -0.13242
C          C       0.30649   0.52000   0.06093  -0.10961
C          C       0.47885   0.79166   0.02688  -0.09900
C          C       0.20875   0.69177   0.05400  -0.10404
C          C       0.68586   0.47932   0.08729  -0.10144
C          C       0.52424   0.20797   0.92714  -0.09583
C          C       0.79314   0.30755   0.94377  -0.10616
C          C       0.31398   0.53816  -0.00245   0.05213
C          C       0.45712   0.77310   0.02784   0.06223
C          C       0.22971   0.68396   0.95781   0.05168
C          C       0.68806   0.45631   0.98198   0.04895
C          C       0.54144   0.22837   0.98632   0.05647
C          C       0.77210   0.31448   0.02371   0.05357
C          C       0.29992   0.53654   0.92603  -0.12246
C          C       0.45678   0.75075   0.99516  -0.12192
C          C       0.25294   0.69988   0.88759  -0.13482
C          C       0.71192   0.45330   0.87713  -0.12280
C          C       0.53820   0.25035   0.04999  -0.12337
C          C       0.74869   0.29843   0.08694  -0.13692
C          C       0.27950   0.51733   0.91276  -0.12897
C          C       0.47738   0.74695   0.95821  -0.13709
C          C       0.25539   0.72229   0.90743  -0.12499
C          C       0.73304   0.47252   0.87721  -0.11696
C          C       0.51795   0.25205   0.06483  -0.13506
C          C       0.74613   0.27640   0.07428  -0.12569
C          C       0.12363   0.30822   0.06307  -0.13413
C          C       0.69019   0.82162   0.04557  -0.13267
C          C       0.18105   0.86963   0.97785  -0.13807
C          C       0.87280   0.69111   0.97991  -0.13581
C          C       0.30512   0.17773   0.99521  -0.13673
C          C       0.81614   0.12759   0.02923  -0.13550
C          C       0.10064   0.29453   0.05974  -0.12337
C          C       0.70376   0.81188   0.04352  -0.12953
C          C       0.19123   0.89268   0.97414  -0.13035
C          C       0.89652   0.70410   0.96893  -0.12449
C          C       0.29162   0.18744   0.99632  -0.13768
C          C       0.80621   0.10425   0.02598  -0.13261
C          C       0.08916   0.30169   0.01817   0.05301
C          C       0.69570   0.78785   0.02169   0.05848
C          C       0.21208   0.90792   0.01171   0.05108
C          C       0.90967   0.69562   0.98446   0.05301
C          C       0.30186   0.21006   0.98177   0.05890
C          C       0.78516   0.08950   0.99004   0.05104
C          C       0.10135   0.32307   0.97930  -0.10404
C          C       0.67384   0.77375  -0.00292  -0.09794
C          C       0.22230   0.89955   0.05572  -0.11227
C          C       0.89790   0.67372   0.01412  -0.10156
C          C       0.32615   0.22249   0.96553  -0.09646
C          C       0.77451   0.09870   0.95613  -0.11151
C          C       0.12420   0.33659   0.98258  -0.14002
C          C       0.66057   0.78353  -0.00242  -0.13183
C          C       0.21188   0.87665   0.06184  -0.14295
C          C       0.87429   0.66080   0.02417  -0.14032
C          C       0.33951   0.21275   0.96442  -0.12577
C          C       0.78490   0.12175   0.95443  -0.13975
C          C       0.39322   0.62135   0.97437  -0.15452
C          C       0.37744   0.76851   0.98046  -0.14327
C          C       0.23082   0.60968   0.03463  -0.13211
C          C       0.60584   0.37464   0.03870  -0.15623
C          C       0.62437   0.23563   0.01386  -0.14666
C          C       0.76775   0.40029   0.13973  -0.13860
C          C       0.41216   0.62509   0.01047   0.19234
C          C       0.37532   0.78914   0.00191   0.20083
C          C       0.21235   0.58784   0.02394   0.19670
C          C       0.58799   0.37100   0.99168   0.18976
C          C       0.62651   0.21553   0.00083   0.20008
C          C       0.78685   0.41279   0.01414   0.20009
C          C       0.39271   0.58560   0.03178  -0.14253
C          C       0.41396   0.81087   0.03323  -0.14710
C          C       0.19105   0.60520   0.00412  -0.15179
C          C       0.60816   0.41072   0.97234  -0.15544
C          C       0.58699   0.19347   0.98400  -0.14053
C          C       0.81121   0.38739   0.89414  -0.14892
C          C       0.26513   0.23823   0.91022  -0.17218
C          C       0.75406   0.01835   0.01646  -0.16891
C          C       0.98030   0.74219   0.00847  -0.16853
C          C       0.73705   0.75828   0.03782  -0.16545
C          C       0.24140   0.98075   0.01082  -0.17025
C          C       0.01847   0.25749   0.98215  -0.17069
C          C       0.28415   0.25095   0.96938   0.20321
C          C       0.74473   0.02825   0.97763   0.19068
C          C       0.96927   0.71863   0.00828   0.18555
C          C       0.71551   0.74610   0.00725   0.20440
C          C       0.25241   0.96908   0.01936   0.19302
C          C       0.03112   0.28093   0.98021   0.19265
C          C       0.27874   0.28760   0.04182  -0.17048
C          C       0.71361   0.99031   0.92816  -0.17538
C          C       0.00504   0.72127   0.01615  -0.18147
C          C       0.71812   0.70936   0.96308  -0.17295
C          C       0.28780   0.00448   0.01800  -0.17192
C          C       0.99502   0.28277   0.00389  -0.16753
C          C       0.77341   0.33670   0.03278   0.06927
C          C       0.66686   0.43531   0.97332   0.07079
C          C       0.56170   0.22852   0.99516   0.08176
C          C       0.22830   0.66096   0.93709   0.06816
C          C       0.33531   0.55875  -0.00184   0.08152
C          C       0.43583   0.77528   0.04773   0.07910
C          C       0.79822   0.44730   0.95497   0.06432
C          C       0.54790   0.34510   0.02696   0.06195
C          C       0.65094   0.20570   0.03948   0.07520
C          C       0.20247   0.54889   0.01216   0.06271
C          C       0.45174   0.65169   0.98281   0.05569
C          C       0.35027   0.79955   0.96916   0.06920
C          C       0.28767   0.22042   0.98557   0.06637
C          C       0.77514   0.06509   0.98691   0.06320
C          C       0.93445   0.70984   0.97358   0.07058
C          C       0.70980   0.77795   0.02286   0.06928
C          C       0.22268   0.93175   0.00184   0.06305
C          C       0.06482   0.28758   0.01896   0.07090
C          C       0.25507   0.30664   0.99227   0.06901
C          C       0.69060   0.94600   0.00652   0.06337
C          C       0.05610   0.74849   0.93740   0.07435
C          C       0.74390   0.69044  -0.00185   0.07110
C          C       0.30450   0.05420   0.04983   0.07074
C          C       0.94647   0.25451   0.00184   0.07399
C          C       0.21177   0.45679   0.44778  -0.23015
C          C       0.54528   0.74902   0.46749  -0.24380
C          C       0.24989   0.79107   0.51144  -0.23526
C          C       0.79325   0.54209   0.48325  -0.23489
C          C       0.45536   0.25364   0.55292  -0.24778
C          C       0.75108   0.20747   0.47512  -0.23557
C          C       0.21321   0.43841   0.45895   0.14644
C          C       0.56355   0.77048   0.47512   0.13076
C          C       0.22839   0.78926   0.51888   0.14541
C          C       0.79055   0.56173   0.49998   0.14924
C          C       0.43815   0.23182   0.52708   0.13430
C          C       0.77249   0.20978   0.46993   0.14387
C          C       0.24791   0.48263   0.51562   0.01504
C          C       0.52017   0.76736   0.49471   0.01976
C          C       0.23184   0.74997   0.50868   0.01818
C          C       0.75003   0.52121   0.53098   0.02049
C          C       0.48235   0.23443   0.49599   0.02111
C          C       0.76897   0.24810   0.46777   0.01791
C          C       0.21030   0.37249   0.50113  -0.15339
C          C       0.62895   0.83959   0.50553  -0.14719
C          C       0.16322   0.78967   0.48784  -0.13498
C          C       0.79079   0.62929   0.49946  -0.15834
C          C       0.37243   0.16316   0.49803  -0.15032
C          C       0.83831   0.21075   0.50051  -0.13333
C          C       0.20025   0.34981   0.51222   0.07493
C          C       0.65131   0.85424   0.51930   0.06634
C          C       0.15087   0.79964   0.47828   0.07693
C          C       0.80010   0.65248   0.49877   0.07270
C          C       0.34844   0.14973   0.51052   0.06426
C          C       0.85093   0.20156   0.51492   0.07146
C          C       0.22245   0.49859   0.49806   0.07246
C          C       0.50418   0.72360   0.48507   0.06866
C          C       0.27632   0.77583   0.49620   0.07539
C          C       0.77819   0.50260   0.49685   0.07319
C          C       0.49588   0.27939   0.53702   0.06669
C          C       0.72460   0.22167   0.48443   0.07557
C          C       0.13879   0.33093   0.50206   0.06924
C          C       0.67035   0.81123   0.52122   0.07162
C          C       0.19387   0.86226   0.51343   0.06336
C          C       0.86241   0.67112   0.49685   0.06272
C          C       0.33106   0.19209   0.48899   0.06857
C          C       0.80736   0.13936   0.49674   0.07239
C          C       0.24078   0.51931   0.45605  -0.12511
C          C       0.48764   0.71258   0.40405  -0.13180
C          C       0.28911   0.75880   0.39518  -0.11836
C          C       0.76668   0.47829   0.43552  -0.12409
C          C       0.51205   0.29107   0.62113  -0.13274
C          C       0.71161   0.23848   0.58739  -0.12014
C          C       0.23423   0.53761   0.48883  -0.09973
C          C       0.46967   0.69128   0.42382  -0.11047
C          C       0.31175   0.76393   0.38929  -0.09941
C          C       0.77141   0.46182   0.44506  -0.10232
C          C       0.52968   0.31258   0.60475  -0.11542
C          C       0.68836   0.23277   0.60137  -0.09670
C          C       0.20926   0.53548   0.55506   0.05699
C          C       0.46772   0.67967   0.52027   0.05406
C          C       0.32348   0.78694   0.47620   0.06328
C          C       0.78879   0.46851   0.50791   0.04992
C          C       0.53162   0.32396   0.50653   0.05236
C          C       0.67643   0.20958   0.51959   0.06277
C          C       0.19080   0.51458   0.58978  -0.14890
C          C       0.48477   0.68990   0.59427  -0.13560
C          C       0.31179   0.80451   0.56577  -0.12936
C          C       0.80172   0.49255   0.55691  -0.13350
C          C       0.51444   0.31342   0.43292  -0.13249
C          C       0.68849   0.19223   0.42594  -0.13322
C          C       0.19749   0.49658   0.56276  -0.14043
C          C       0.50256   0.71143   0.57670  -0.13740
C          C       0.28847   0.79887   0.57957  -0.14454
C          C       0.79602   0.50906   0.55603  -0.14391
C          C       0.49705   0.29164   0.44801  -0.13872
C          C       0.71242   0.19846   0.40378  -0.14635
C          C       0.24008   0.34829   0.45068  -0.12793
C          C       0.65106   0.88611   0.46566  -0.13296
C          C       0.12158   0.76190   0.36614  -0.12986
C          C       0.76053   0.65249   0.54300  -0.12985
C          C       0.35118   0.11527   0.51564  -0.13136
C          C       0.88354   0.24015   0.56769  -0.12504
C          C       0.25339   0.33821   0.44770  -0.13068
C          C       0.66123   0.90861   0.45223  -0.12609
C          C       0.09862   0.74945   0.36008  -0.12570
C          C       0.74737   0.66259   0.54478  -0.13034
C          C       0.34188   0.09210   0.51217  -0.12410
C          C       0.90692   0.25281   0.56548  -0.12580
C          C       0.24130   0.31847   0.50680   0.05600
C          C       0.68230   0.92418   0.48508   0.04774
C          C       0.08042   0.76077   0.45220   0.05313
C          C       0.75918   0.68354   0.50172   0.06090
C          C       0.31860   0.07801   0.51135   0.04563
C          C       0.92264   0.24125   0.51877   0.05621
C          C       0.21540   0.30953   0.57126  -0.09493
C          C       0.69249   0.91696   0.53697  -0.11406
C          C       0.08592   0.78502   0.55060  -0.10371
C          C       0.78476   0.69360   0.45077  -0.09680
C          C       0.30515   0.08796   0.51204  -0.11597
C          C       0.91429   0.21656   0.47236  -0.09814
C          C       0.20217   0.31979   0.57561  -0.12925
C          C       0.68221   0.89464   0.55198  -0.13857
C          C       0.10876   0.79737   0.55710  -0.13404
C          C       0.79779   0.68325   0.44677  -0.12390
C          C       0.31457   0.11105   0.51500  -0.13775
C          C       0.89116   0.20403   0.47262  -0.13610
C          C       0.37371   0.58523   0.49532   0.19145
C          C       0.41728   0.78586   0.47427   0.20654
C          C       0.21196   0.62556   0.49291   0.20805
C          C       0.62768   0.41630   0.48243   0.19808
C          C       0.58542   0.21179   0.49459   0.19069
C          C       0.78572   0.37538   0.54161   0.20893
C          C       0.37367   0.60480   0.48547  -0.17340
C          C       0.39982   0.76372   0.44182  -0.17846
C          C       0.23456   0.62644   0.46736  -0.17888
C          C       0.63007   0.39585   0.46225  -0.17853
C          C       0.60789   0.22981   0.45050  -0.16899
C          C       0.76235   0.37718   0.60660  -0.17573
C          C       0.41465   0.60737   0.49323  -0.17422
C          C       0.39388   0.80325   0.47778  -0.16967
C          C       0.19375   0.58668   0.52352  -0.16803
C          C       0.58493   0.39513   0.52802  -0.17017
C          C       0.60429   0.19698   0.55766  -0.17637
C          C       0.80482   0.41245   0.47916  -0.16611
C          C       0.26029   0.27774   0.51050   0.20957
C          C       0.72326   0.98418   0.47343   0.19722
C          C       0.01700   0.74395   0.51136   0.19657
C          C       0.74135   0.72498   0.49452   0.21022
C          C       0.27830   0.01739   0.51320   0.19738
C          C       0.98385   0.25779   0.49348   0.19393
C          C       0.25252   0.25297   0.45921  -0.14531
C          C       0.74591   0.99730   0.48737  -0.13951
C          C       0.00554   0.75378   0.49066  -0.15095
C          C       0.75037   0.74958   0.53067  -0.14294
C          C       0.25685   0.00338   0.48133  -0.14109
C          C       0.99320   0.24949   0.54440  -0.15683
C          C       0.29416   0.27818   0.52836  -0.13965
C          C       0.72302   0.01866   0.46709  -0.14270
C          C       0.98086   0.70954   0.53636  -0.14941
C          C       0.70788   0.72436   0.47119  -0.13672
C          C       0.27702   0.98436   0.54770  -0.14012
C          C       0.02133   0.29079   0.45224  -0.15482
C          C       0.20876   0.40546   0.47796   0.28765
C          C       0.59633   0.80190   0.49065   0.29912
C          C       0.19792   0.79291   0.52090   0.29394
C          C       0.79349   0.59598   0.51003   0.28249
C          C       0.40704   0.19973   0.48553   0.30223
C          C       0.80304   0.20723   0.47379   0.29372
C          C       0.19754   0.38159   0.48715   0.01686
C          C       0.62001   0.81620   0.49964   0.02004
C          C       0.18495   0.80346   0.51333   0.02695
C          C       0.80436   0.61974   0.50103   0.01008
C          C       0.38282   0.18571   0.48335   0.01953
C          C       0.81580   0.19704   0.48662   0.02864
C          C       0.17648   0.33681   0.51746  -0.17517
C          C       0.66426   0.84501   0.53065  -0.17225
C          C       0.16147   0.82323   0.48310  -0.18525
C          C       0.82330   0.66614   0.50294  -0.16991
C          C       0.33499   0.16003   0.51428  -0.17043
C          C       0.83992   0.17835   0.52040  -0.18611
C          C       0.23108   0.44167   0.50497   0.14649
C          C       0.56088   0.79066   0.49306   0.13336
C          C       0.20847   0.76831   0.52055   0.14760
C          C       0.76798   0.56186   0.53242   0.14628
C          C       0.44266   0.21108   0.48069   0.14067
C          C       0.79279   0.23050   0.45895   0.14826
C          C       0.24855   0.46368   0.52949  -0.19735
C          C       0.53913   0.78879   0.50343  -0.20033
C          C       0.21040   0.74898   0.51673  -0.18500
C          C       0.74801   0.54160   0.54853  -0.19202
C          C       0.46461   0.21244   0.46531  -0.19555
C          C       0.79076   0.24918   0.45522  -0.18137
C          C       0.22812   0.47949   0.48429   0.03077
C          C       0.52299   0.74705   0.48098   0.03008
C          C       0.25209   0.77160   0.50791   0.02984
C          C       0.77304   0.52157   0.50336   0.04013
C          C       0.47794   0.25531   0.53267   0.03306
C          C       0.74893   0.22641   0.47176   0.03055
C          C       0.16335   0.34541   0.50279   0.06532
C          C       0.65603   0.82133   0.51981   0.07460
C          C       0.18317   0.83750   0.50898   0.05890
C          C       0.83773   0.65686   0.49798   0.07232
C          C       0.34524   0.18215   0.49273   0.07823
C          C       0.81786   0.16402   0.50093   0.05665
C          C       0.17427   0.36794   0.48588  -0.19050
C          C       0.63376   0.80720   0.50304  -0.16220
C          C       0.19438   0.82742   0.52884  -0.19183
C          C       0.82801   0.63336   0.49376  -0.19333
C          C       0.36960   0.19465   0.47336  -0.17063
C          C       0.80608   0.17355   0.48168  -0.18934
C          C       0.26891   0.50434   0.53091   0.07578
C          C       0.49850   0.76841   0.50397   0.07479
C          C       0.23106   0.72791   0.50518   0.07287
C          C       0.72721   0.50091   0.53841   0.07452
C          C       0.50387   0.23327   0.48997   0.07913
C          C       0.76903   0.27033   0.47839   0.07040
C          C       0.21421   0.33943   0.51451   0.07483
C          C       0.66147   0.87857   0.51404   0.07057
C          C       0.12702   0.78605   0.46537   0.07379
C          C       0.78602   0.66266   0.49560   0.07173
C          C       0.33784   0.12548   0.51709   0.07117
C          C       0.87519   0.21547   0.52056   0.07401
C          C       0.29275   0.50152   0.43348  -0.13577
C          C       0.50271   0.78326   0.42121  -0.13868
C          C       0.21609   0.70597   0.43344  -0.14219
C          C       0.71417   0.49748   0.44957  -0.13767
C          C       0.49985   0.21518   0.54220  -0.13467
C          C       0.78286   0.29212   0.56223  -0.14059
C          C       0.31358   0.52048   0.44119  -0.10287
C          C       0.48318   0.78601   0.43366  -0.10335
C          C       0.21273   0.68506   0.44177  -0.10808
C          C       0.69257   0.47929   0.45087  -0.10904
C          C       0.51888   0.21190   0.53217  -0.10542
C          C       0.78527   0.31358   0.56783  -0.10863
C          C       0.31142   0.54341   0.54273   0.05137
C          C       0.45854   0.77359   0.52500   0.05349
C          C       0.22549   0.68513   0.51615   0.04865
C          C       0.68291   0.46338   0.54224   0.05146
C          C       0.54285   0.22754   0.48043   0.06286
C          C       0.77261   0.31424   0.49564   0.04937
C          C       0.28768   0.54647   0.64214  -0.12476
C          C       0.45436   0.75850   0.60419  -0.11636
C          C       0.24141   0.70654   0.57895  -0.13003
C          C       0.69538   0.46695   0.63419  -0.12215
C          C       0.54697   0.24588   0.43236  -0.12555
C          C       0.75781   0.29284   0.41982  -0.13210
C          C       0.26676   0.52723   0.64015  -0.11685
C          C       0.47388   0.75644   0.59716  -0.12388
C          C       0.24361   0.72758   0.57954  -0.13174
C          C       0.71692   0.48538   0.63423  -0.13136
C          C       0.52820   0.24823   0.43160  -0.13116
C          C       0.75661   0.27128   0.40598  -0.13164
C          C       0.13129   0.30632   0.45697  -0.13933
C          C       0.69460   0.82363   0.50728  -0.13883
C          C       0.18000   0.87403   0.53768  -0.13334
C          C       0.87547   0.69215   0.45291  -0.13227
C          C       0.31048   0.17778   0.44776  -0.13687
C          C       0.82271   0.12608   0.42809  -0.13023
C          C       0.10795   0.29263   0.46027  -0.12724
C          C       0.70807   0.81352   0.50268  -0.13752
C          C       0.18998   0.89738   0.54245  -0.12766
C          C       0.89923   0.70473   0.44143  -0.12197
C          C       0.29787   0.18739   0.43881  -0.13125
C          C       0.81305   0.10253   0.41626  -0.12839
C          C       0.09137   0.30296   0.50365   0.05698
C          C       0.69803   0.79051   0.50992   0.05926
C          C       0.21432   0.91019   0.52468   0.04938
C          C       0.91108   0.69698   0.47495   0.05340
C          C       0.30561   0.21161   0.46704   0.05401
C          C       0.78751   0.09136   0.47153   0.05397
C          C       0.09881   0.32755   0.54742  -0.09893
C          C       0.67380   0.77799   0.52409  -0.09577
C          C       0.22836   0.89848   0.49917  -0.10672
C          C       0.89799   0.67624   0.52280  -0.10505
C          C       0.32577   0.22607   0.51284  -0.09627
C          C       0.77194   0.10457   0.54223  -0.10193
C          C       0.12189   0.34115   0.54764  -0.13424
C          C       0.66044   0.78829   0.53128  -0.12381
C          C       0.21840   0.87516   0.49289  -0.14366
C          C       0.87424   0.66377   0.53460  -0.14160
C          C       0.33792   0.21651   0.52559  -0.12791
C          C       0.78166   0.12815   0.55523  -0.14754
C          C       0.39354   0.62499   0.47970  -0.15336
C          C       0.37964   0.76151   0.42982  -0.14728
C          C       0.23641   0.60807   0.47475  -0.14345
C          C       0.61011   0.37577   0.47937  -0.14913
C          C       0.62750   0.23212   0.46917  -0.14941
C          C       0.76041   0.39583   0.60242  -0.14824
C          C       0.41438   0.62693   0.48481   0.19421
C          C       0.37587   0.78120   0.45138   0.19286
C          C       0.21598   0.58811   0.50745   0.19648
C          C       0.58727   0.37485   0.51043   0.18856
C          C       0.62609   0.21580   0.52405   0.19100
C          C       0.78146   0.41379   0.53760   0.19659
C          C       0.39488   0.58678   0.49506  -0.14736
C          C       0.41425   0.80546   0.48781  -0.14841
C          C       0.19182   0.60502   0.51501  -0.14306
C          C       0.60482   0.41538   0.51302  -0.15364
C          C       0.58429   0.19514   0.54461  -0.14037
C          C       0.80689   0.39375   0.48273  -0.15402
C          C       0.26543   0.24096   0.43920  -0.16730
C          C       0.75690   0.02061   0.49293  -0.17538
C          C       0.98257   0.74151   0.48730  -0.17009
C          C       0.73827   0.76132   0.53892  -0.16694
C          C       0.24578   0.98023   0.48130  -0.16903
C          C       0.01603   0.26171   0.55134  -0.16874
C          C       0.28649   0.25342   0.47567   0.19946
C          C       0.74563   0.03171   0.48226   0.19511
C          C       0.96976   0.71897   0.50872   0.18791
C          C       0.71680   0.74895   0.50746   0.19953
C          C       0.25562   0.97033   0.51599   0.19530
C          C       0.03055   0.28272   0.50573   0.18623
C          C       0.28142   0.29026   0.54593  -0.17746
C          C       0.71213   0.99527   0.46062  -0.16920
C          C       0.00407   0.72167   0.53691  -0.17804
C          C       0.71986   0.71255   0.46368  -0.17188
C          C       0.28804   0.00750   0.54855  -0.16585
C          C       0.99863   0.27849   0.44397  -0.17502
C          C       0.77372   0.33574   0.49385   0.07724
C          C       0.66075   0.44326   0.54874   0.07581
C          C       0.56325   0.22687   0.48409   0.07845
C          C       0.22326   0.66458   0.53439   0.07400
C          C       0.33263   0.56435   0.55216   0.06734
C          C       0.43733   0.77501   0.53739   0.08070
C          C       0.79256   0.45173   0.53270   0.06586
C          C       0.55149   0.34570   0.47767   0.07080
C          C       0.65353   0.20386   0.51337   0.06729
C          C       0.20295   0.55418   0.57602   0.06460
C          C       0.44814   0.65771   0.54671   0.07033
C          C       0.34603   0.79258   0.48671   0.06665
C          C       0.29246   0.22151   0.45583   0.06989
C          C       0.77782   0.06650   0.45304   0.05648
C          C       0.93612   0.71040   0.46098   0.07245
C          C       0.71228   0.78000   0.50341   0.06446
C          C       0.22405   0.93469   0.53294   0.05995
C          C       0.06764   0.28816   0.49564   0.06553
C          C       0.25572   0.30737   0.49283   0.07312
C          C       0.69325   0.94730   0.46244   0.06993
C          C       0.05651   0.74744   0.44454   0.06876
C          C       0.74504   0.69472   0.51312   0.07272
C          C       0.30889   0.05396   0.51383   0.06487
C          C       0.94660   0.25467   0.52396   0.07002
N          N       0.22951   0.41648   0.95520  -0.39461
N          N       0.58353   0.80276   0.93161  -0.40250
N          N       0.19187   0.76974  -0.00002  -0.39537
N          N       0.77359   0.57733   0.96497  -0.38775
N          N       0.41645   0.19262   0.02970  -0.39366
N          N       0.80746   0.22719   0.99072  -0.38871
N          N       0.19315   0.41569   0.00409  -0.33309
N          N       0.58044   0.77680   0.02622  -0.32445
N          N       0.21912   0.80582   0.04738  -0.33162
N          N       0.80236   0.58395   0.04405  -0.33082
N          N       0.41778   0.22010   0.95827  -0.33027
N          N       0.77897   0.19173   0.95347  -0.33305
N          N       0.79363   0.35362   0.99233  -0.29318
N          N       0.64521   0.43575   0.02414  -0.29162
N          N       0.56436   0.21027   0.97986  -0.30394
N          N       0.20811   0.64643   0.01633  -0.28348
N          N       0.35413   0.56084   0.00935  -0.30177
N          N       0.43642   0.79231   0.02290  -0.30091
N          N       0.78154   0.43043   0.02201  -0.28745
N          N       0.57096   0.34853   0.97226  -0.28064
N          N       0.64868   0.21839   0.98955  -0.29003
N          N       0.21593   0.57067   0.03641  -0.29439
N          N       0.42896   0.64755   0.02462  -0.29108
N          N       0.35363   0.78631   0.00655  -0.28281
N          N       0.29748   0.24090   0.96681  -0.28412
N          N       0.75427   0.05151   0.97700  -0.29461
N          N       0.94589   0.70433   0.01177  -0.30292
N          N       0.70204   0.75600   0.00876  -0.29840
N          N       0.24238   0.94617   0.02758  -0.29811
N          N       0.05484   0.29371   0.97310  -0.29735
N          N       0.24602   0.28514   0.99116  -0.28862
N          N       0.71388   0.95723   0.96224  -0.28649
N          N       0.03864   0.75824   0.02731  -0.28881
N          N       0.75313   0.71154   0.99027  -0.29437
N          N       0.28736   0.03863   0.99510  -0.29275
N          N       0.95827   0.24670   0.01891  -0.30421
N          N       0.22790   0.42104   0.51629  -0.39427
N          N       0.58144   0.80987   0.50100  -0.40123
N          N       0.18973   0.77099   0.52252  -0.40356
N          N       0.77024   0.58318   0.53742  -0.39227
N          N       0.42293   0.19164   0.45774  -0.40460
N          N       0.81159   0.22847   0.46067  -0.39299
N          N       0.19913   0.41509   0.44184  -0.32959
N          N       0.58665   0.77795   0.46975  -0.33357
N          N       0.22105   0.80449   0.52047  -0.31810
N          N       0.80678   0.58369   0.48470  -0.33924
N          N       0.41510   0.22426   0.52997  -0.34323
N          N       0.77960   0.19500   0.47688  -0.32910
N          N       0.78837   0.35640   0.53900  -0.28753
N          N       0.64722   0.43726   0.47059  -0.29029
N          N       0.56402   0.20928   0.49257  -0.29735
N          N       0.20929   0.64360   0.48501  -0.28953
N          N       0.35459   0.56382   0.49045  -0.29268
N          N       0.43871   0.78872   0.47517  -0.29191
N          N       0.77742   0.43068   0.52623  -0.28674
N          N       0.56808   0.35406   0.53398  -0.28621
N          N       0.64678   0.22033   0.54206  -0.28635
N          N       0.22037   0.57064   0.50764  -0.28873
N          N       0.43357   0.64778   0.46850  -0.28632
N          N       0.35490   0.77612   0.43426  -0.29577
N          N       0.30016   0.24351   0.47224  -0.29829
N          N       0.75471   0.05528   0.49343  -0.28670
N          N       0.94615   0.70542   0.51468  -0.30253
N          N       0.70330   0.75889   0.51004  -0.29279
N          N       0.24629   0.94717   0.51657  -0.28784
N          N       0.05343   0.29678   0.51141  -0.28990
N          N       0.24571   0.28799   0.52873  -0.28597
N          N       0.71318   0.96154   0.48533  -0.29809
N          N       0.04005   0.75755   0.51463  -0.28481
N          N       0.75509   0.71473   0.48619  -0.29450
N          N       0.28800   0.04028   0.50621  -0.30139
N          N       0.96075   0.24447   0.49063  -0.28669

