data_crystal

_audit_creation_method 'AiiDA-DDEC plugin'

_cell_length_a        55.90205
_cell_length_b        55.90890
_cell_length_c        10.00757

_cell_angle_alpha     90.06916
_cell_angle_beta     89.96637
_cell_angle_gamma     120.00298

_symmetry_space_group_name_Hall 'P 1'
_symmetry_space_group_name_H-M  'P 1'

loop_
_symmetry_equiv_pos_as_xyz
 'x,y,z'

loop_
_atom_site_label
_atom_site_type_symbol
_atom_site_fract_x
_atom_site_fract_y
_atom_site_fract_z
_atom_site_charge
H          H       0.46840   0.51461   0.25910   0.10288
H          H       0.48512   0.95365   0.25874   0.10351
H          H       0.04630   0.53142   0.25866   0.10330
H          H       0.53145   0.48519   0.25823   0.10329
H          H       0.51453   0.04614   0.25967   0.10314
H          H       0.95365   0.46824   0.25913   0.10250
H          H       0.44523   0.45552   0.94104   0.10567
H          H       0.54445   0.98966   0.94199   0.10579
H          H       0.01005   0.55468   0.94300   0.10565
H          H       0.55483   0.54457   0.94193   0.10550
H          H       0.45555   0.01030   0.94135   0.10529
H          H       0.98969   0.44521   0.94109   0.10557
H          H       0.40044   0.45426   0.91851   0.11745
H          H       0.54577   0.94616   0.91950   0.11699
H          H       0.05352   0.59950   0.92037   0.11747
H          H       0.59963   0.54584   0.91950   0.11732
H          H       0.45433   0.05385   0.91900   0.11696
H          H       0.94619   0.40042   0.91791   0.11717
H          H       0.42259   0.51132   0.24686   0.12109
H          H       0.48847   0.91116   0.24648   0.12159
H          H       0.08877   0.57726   0.24630   0.12069
H          H       0.57727   0.48848   0.24602   0.12073
H          H       0.51128   0.08869   0.24752   0.12095
H          H       0.91115   0.42244   0.24614   0.12111
H          H       0.45776   0.44164   0.25181   0.10730
H          H       0.55836   0.01595   0.25111   0.10555
H          H       0.98388   0.54228   0.25194   0.10506
H          H       0.54235   0.55847   0.25110   0.10878
H          H       0.44144   0.98396   0.25126   0.10864
H          H       0.01601   0.45758   0.25150   0.10748
H          H       0.45653   0.39671   0.23717   0.12011
H          H       0.60332   0.05957   0.23640   0.12017
H          H       0.94025   0.54363   0.23699   0.11996
H          H       0.54357   0.60338   0.23640   0.11986
H          H       0.39649   0.94030   0.23651   0.12076
H          H       0.05969   0.45632   0.23669   0.12000
H          H       0.51218   0.42697   0.90231   0.11690
H          H       0.57287   0.08514   0.90319   0.11689
H          H       0.91473   0.48765   0.90313   0.11702
H          H       0.48762   0.57284   0.90270   0.11714
H          H       0.42695   0.91468   0.90303   0.11697
H          H       0.08515   0.51218   0.90295   0.11672
H          H       0.51520   0.47263   0.92575   0.09959
H          H       0.52718   0.04258   0.92685   0.09939
H          H       0.95730   0.48453   0.92689   0.10001
H          H       0.48460   0.52719   0.92634   0.09972
H          H       0.47262   0.95727   0.92667   0.09963
H          H       0.04252   0.51521   0.92657   0.09992
H          H       0.32364   0.45270   0.33196   0.11771
H          H       0.54726   0.87101   0.33212   0.11697
H          H       0.12899   0.67619   0.33311   0.11765
H          H       0.67616   0.54721   0.33273   0.11729
H          H       0.45258   0.12904   0.33229   0.11737
H          H       0.87094   0.32347   0.33070   0.11777
H          H       0.28014   0.45425   0.32051   0.12149
H          H       0.54569   0.82594   0.32078   0.12098
H          H       0.17404   0.71967   0.32168   0.12159
H          H       0.71969   0.54568   0.32185   0.11832
H          H       0.45417   0.17411   0.32051   0.12129
H          H       0.82590   0.27997   0.31873   0.11823
H          H       0.31142   0.50804   0.97888   0.11012
H          H       0.49179   0.80326   0.97912   0.11186
H          H       0.19641   0.68853   0.97831   0.11063
H          H       0.68876   0.49212   0.97876   0.11059
H          H       0.50809   0.19656   0.97910   0.11109
H          H       0.80332   0.31138   0.97785   0.11033
H          H       0.35444   0.50522   0.98655   0.12213
H          H       0.49461   0.84909   0.98696   0.11878
H          H       0.15056   0.64554   0.98609   0.11966
H          H       0.64571   0.49490   0.98597   0.12235
H          H       0.50527   0.15072   0.98728   0.11924
H          H       0.84914   0.35438   0.98587   0.11940
H          H       0.49587   0.38406   0.25367   0.07167
H          H       0.61594   0.11172   0.25375   0.07154
H          H       0.88816   0.50401   0.25389   0.07182
H          H       0.50395   0.61587   0.25329   0.07190
H          H       0.38396   0.88811   0.25340   0.07150
H          H       0.11176   0.49584   0.25361   0.07168
H          H       0.51340   0.35429   0.32490   0.11577
H          H       0.64564   0.15916   0.32414   0.11877
H          H       0.84080   0.48629   0.32483   0.11919
H          H       0.48619   0.64550   0.32399   0.11668
H          H       0.35430   0.84066   0.32361   0.11583
H          H       0.15916   0.51360   0.32431   0.11878
H          H       0.51109   0.30879   0.31913   0.11952
H          H       0.69110   0.20237   0.31796   0.12208
H          H       0.79759   0.48858   0.31992   0.11950
H          H       0.48859   0.69104   0.31933   0.12232
H          H       0.30876   0.79756   0.31838   0.12205
H          H       0.20237   0.51132   0.31875   0.11935
H          H       0.45594   0.28477   0.98143   0.10893
H          H       0.71514   0.17094   0.98122   0.10976
H          H       0.82881   0.54415   0.98421   0.10968
H          H       0.54431   0.71540   0.98388   0.10941
H          H       0.28454   0.82892   0.98266   0.10890
H          H       0.17115   0.45590   0.98191   0.10917
H          H       0.45969   0.33112   0.98318   0.11313
H          H       0.66883   0.12828   0.98347   0.11295
H          H       0.87144   0.54041   0.98481   0.11296
H          H       0.54048   0.66900   0.98430   0.11313
H          H       0.33095   0.87143   0.98369   0.11259
H          H       0.12851   0.45962   0.98331   0.11286
H          H       0.52584   0.28518   0.13153   0.13390
H          H       0.71471   0.24065   0.13160   0.13697
H          H       0.75933   0.47417   0.12995   0.13379
H          H       0.47413   0.71472   0.13155   0.13761
H          H       0.28511   0.75948   0.12919   0.13315
H          H       0.24062   0.52582   0.12998   0.13329
H          H       0.24116   0.43800   0.15888   0.12556
H          H       0.56190   0.80323   0.15864   0.12512
H          H       0.19659   0.75856   0.16118   0.12603
H          H       0.75882   0.56198   0.16270   0.12556
H          H       0.43795   0.19672   0.15534   0.12582
H          H       0.80310   0.24099   0.15251   0.12589
H          H       0.84290   0.59003   0.27236   0.39226
H          H       0.40906   0.25215   0.26078   0.39068
H          H       0.74763   0.15678   0.25844   0.39162
H          H       0.15677   0.40970   0.26440   0.39201
H          H       0.59041   0.74783   0.26906   0.39144
H          H       0.25249   0.84312   0.26576   0.38637
H          H       0.68894   0.47660   0.24295   0.34980
H          H       0.52349   0.21256   0.24377   0.34679
H          H       0.78752   0.31093   0.24336   0.35063
H          H       0.31089   0.52351   0.24385   0.34729
H          H       0.47616   0.78733   0.24333   0.34957
H          H       0.21238   0.68890   0.24176   0.35003
H          H       0.37224   0.47221   0.26632   0.07415
H          H       0.52775   0.90004   0.26643   0.07386
H          H       0.09994   0.62763   0.26710   0.07421
H          H       0.62763   0.52762   0.26657   0.07409
H          H       0.47213   0.09994   0.26681   0.07412
H          H       0.90003   0.37210   0.26520   0.07395
H          H       0.46850   0.51477   0.75879   0.10306
H          H       0.48551   0.95396   0.75985   0.10307
H          H       0.04612   0.53172   0.76038   0.10286
H          H       0.53162   0.48557   0.75959   0.10298
H          H       0.51472   0.04628   0.75951   0.10303
H          H       0.95380   0.46848   0.75933   0.10287
H          H       0.44517   0.45554   0.44122   0.10565
H          H       0.54432   0.98956   0.44073   0.10541
H          H       0.01042   0.55470   0.44098   0.10612
H          H       0.55475   0.54427   0.44031   0.10548
H          H       0.45565   0.01039   0.44155   0.10562
H          H       0.98969   0.44532   0.44105   0.10555
H          H       0.40038   0.45429   0.41909   0.11734
H          H       0.54556   0.94601   0.41864   0.11694
H          H       0.05397   0.59944   0.41843   0.11697
H          H       0.59952   0.54548   0.41811   0.11686
H          H       0.45438   0.05391   0.41937   0.11689
H          H       0.94616   0.40055   0.41826   0.11732
H          H       0.42268   0.51148   0.74694   0.12140
H          H       0.48879   0.91142   0.74789   0.12092
H          H       0.08866   0.57751   0.74802   0.12057
H          H       0.57742   0.48881   0.74755   0.12116
H          H       0.51140   0.08879   0.74759   0.12126
H          H       0.91127   0.42268   0.74674   0.12072
H          H       0.45738   0.44154   0.74986   0.10586
H          H       0.55856   0.01591   0.75015   0.10883
H          H       0.98396   0.54247   0.75149   0.10859
H          H       0.54257   0.55851   0.75039   0.10584
H          H       0.44155   0.98405   0.75092   0.10862
H          H       0.01594   0.45752   0.75042   0.10781
H          H       0.45611   0.39659   0.73514   0.12037
H          H       0.60353   0.05955   0.73581   0.12040
H          H       0.94027   0.54372   0.73667   0.11978
H          H       0.54397   0.60351   0.73563   0.12000
H          H       0.39662   0.94038   0.73616   0.12016
H          H       0.05961   0.45623   0.73571   0.12017
H          H       0.51260   0.42719   0.40357   0.11789
H          H       0.57300   0.08536   0.40383   0.11677
H          H       0.91477   0.48770   0.40300   0.11691
H          H       0.48776   0.57299   0.40287   0.11676
H          H       0.42716   0.91475   0.40296   0.11704
H          H       0.08533   0.51247   0.40343   0.11743
H          H       0.51565   0.47285   0.42719   0.09944
H          H       0.52733   0.04279   0.42715   0.09936
H          H       0.95740   0.48466   0.42660   0.09984
H          H       0.48458   0.52728   0.42660   0.09947
H          H       0.47281   0.95736   0.42676   0.09944
H          H       0.04273   0.51555   0.42719   0.09984
H          H       0.32339   0.45219   0.83072   0.11743
H          H       0.54740   0.87094   0.83122   0.11746
H          H       0.12879   0.67672   0.82967   0.11804
H          H       0.67663   0.54790   0.83027   0.11764
H          H       0.45261   0.12910   0.83208   0.11796
H          H       0.87138   0.32358   0.82981   0.11770
H          H       0.27988   0.45373   0.81964   0.12194
H          H       0.54570   0.82581   0.81914   0.12178
H          H       0.17392   0.72013   0.81856   0.12157
H          H       0.72006   0.54620   0.81942   0.12182
H          H       0.45432   0.17422   0.82097   0.12158
H          H       0.82632   0.28008   0.81882   0.12182
H          H       0.31154   0.50844   0.48135   0.11141
H          H       0.49159   0.80332   0.47845   0.11120
H          H       0.19702   0.68817   0.48105   0.11159
H          H       0.68833   0.49133   0.48121   0.11158
H          H       0.50840   0.19680   0.48018   0.11093
H          H       0.80312   0.31165   0.48070   0.11124
H          H       0.35455   0.50561   0.48866   0.11981
H          H       0.49454   0.84921   0.48693   0.12199
H          H       0.15110   0.64523   0.48845   0.12295
H          H       0.64539   0.49431   0.48829   0.12014
H          H       0.50546   0.15091   0.48766   0.12248
H          H       0.84898   0.35465   0.48778   0.11904
H          H       0.49585   0.38414   0.75320   0.07182
H          H       0.61607   0.11186   0.75375   0.07141
H          H       0.88817   0.50392   0.75367   0.07186
H          H       0.50435   0.61607   0.75312   0.07160
H          H       0.38410   0.88827   0.75336   0.07149
H          H       0.11175   0.49592   0.75358   0.07159
H          H       0.51348   0.35447   0.82440   0.11898
H          H       0.64563   0.15931   0.82417   0.11881
H          H       0.84089   0.48624   0.82506   0.11922
H          H       0.48659   0.64565   0.82407   0.11889
H          H       0.35444   0.84100   0.82497   0.11575
H          H       0.15909   0.51370   0.82462   0.11930
H          H       0.51116   0.30896   0.81912   0.12185
H          H       0.69113   0.20246   0.81914   0.12204
H          H       0.79758   0.48833   0.81998   0.11963
H          H       0.48869   0.69106   0.81861   0.12240
H          H       0.30897   0.79782   0.82008   0.12002
H          H       0.20232   0.51147   0.81971   0.12220
H          H       0.45576   0.28468   0.48242   0.10911
H          H       0.71547   0.17116   0.48309   0.10976
H          H       0.82868   0.54397   0.48443   0.10857
H          H       0.54420   0.71539   0.48235   0.10863
H          H       0.28478   0.82869   0.48223   0.10867
H          H       0.17123   0.45589   0.48344   0.10892
H          H       0.45951   0.33104   0.48355   0.11416
H          H       0.66911   0.12857   0.48383   0.11312
H          H       0.87147   0.54055   0.48562   0.11348
H          H       0.54070   0.66915   0.48362   0.11318
H          H       0.33108   0.87128   0.48302   0.11269
H          H       0.12855   0.45951   0.48415   0.11304
H          H       0.52585   0.28544   0.63311   0.13287
H          H       0.71485   0.24070   0.63456   0.13349
H          H       0.75897   0.47359   0.63710   0.13350
H          H       0.47391   0.71459   0.63253   0.13721
H          H       0.28541   0.75929   0.63589   0.13297
H          H       0.24078   0.52606   0.63506   0.13773
H          H       0.24105   0.43798   0.65567   0.12534
H          H       0.56168   0.80317   0.65460   0.12471
H          H       0.19684   0.75858   0.65421   0.12552
H          H       0.75879   0.56173   0.65358   0.12524
H          H       0.43824   0.19680   0.65697   0.12560
H          H       0.80331   0.24129   0.65576   0.12542
H          H       0.84257   0.59056   0.76357   0.39056
H          H       0.40904   0.25196   0.76269   0.39112
H          H       0.74817   0.15716   0.76282   0.39230
H          H       0.15725   0.40962   0.76714   0.39121
H          H       0.59097   0.74825   0.76064   0.39116
H          H       0.25175   0.84275   0.76075   0.39113
H          H       0.68875   0.47699   0.74525   0.34788
H          H       0.52380   0.21241   0.74103   0.34918
H          H       0.78769   0.31083   0.74756   0.34612
H          H       0.31091   0.52317   0.74782   0.34953
H          H       0.47665   0.78797   0.74029   0.34827
H          H       0.21180   0.68882   0.74375   0.34749
H          H       0.37216   0.47209   0.76649   0.07383
H          H       0.52780   0.90003   0.76663   0.07426
H          H       0.09990   0.62798   0.76600   0.07452
H          H       0.62790   0.52806   0.76597   0.07417
H          H       0.47214   0.10000   0.76682   0.07368
H          H       0.90021   0.37224   0.76544   0.07375
C          C       0.46030   0.48542   0.10104   0.05846
C          C       0.51443   0.97479   0.10134   0.05943
C          C       0.02504   0.53957   0.10181   0.06000
C          C       0.53966   0.51453   0.10105   0.05908
C          C       0.48538   0.02509   0.10150   0.05965
C          C       0.97481   0.46021   0.10114   0.05898
C          C       0.44031   0.46786   0.00758  -0.12211
C          C       0.53207   0.97239   0.00824  -0.12420
C          C       0.02736   0.55959   0.00901  -0.12350
C          C       0.55970   0.53217   0.00810  -0.12272
C          C       0.46787   0.02754   0.00799  -0.12291
C          C       0.97242   0.44026   0.00749  -0.12186
C          C       0.41516   0.46702   0.99489  -0.17301
C          C       0.53294   0.94808   0.99555  -0.17211
C          C       0.05165   0.58476   0.99626  -0.17239
C          C       0.58486   0.53300   0.99545  -0.17263
C          C       0.46706   0.05187   0.99538  -0.17253
C          C       0.94811   0.41510   0.99445  -0.17269
C          C       0.45331   0.50092   0.18660  -0.11525
C          C       0.49888   0.95229   0.18652  -0.11585
C          C       0.04761   0.54654   0.18668  -0.11586
C          C       0.54659   0.49895   0.18612  -0.11530
C          C       0.50087   0.04757   0.18713  -0.11534
C          C       0.95229   0.45318   0.18647  -0.11393
C          C       0.47008   0.43864   0.17653  -0.12359
C          C       0.56131   0.03129   0.17625  -0.12149
C          C       0.96855   0.52991   0.17685  -0.12191
C          C       0.52996   0.56140   0.17610  -0.12463
C          C       0.43849   0.96860   0.17630  -0.12501
C          C       0.03133   0.46993   0.17644  -0.12386
C          C       0.46930   0.41337   0.16863  -0.18159
C          C       0.58661   0.05574   0.16827  -0.18195
C          C       0.94409   0.53076   0.16876  -0.18187
C          C       0.53074   0.58667   0.16812  -0.18212
C          C       0.41319   0.94412   0.16830  -0.18269
C          C       0.05582   0.46913   0.16842  -0.18203
C          C       0.50079   0.43046   0.98064  -0.17150
C          C       0.56941   0.07023   0.98122  -0.17136
C          C       0.92963   0.49909   0.98133  -0.17170
C          C       0.49908   0.56941   0.98082  -0.17156
C          C       0.43040   0.92960   0.98113  -0.17126
C          C       0.07025   0.50074   0.98107  -0.17139
C          C       0.50227   0.45589   0.99322  -0.11945
C          C       0.54396   0.04632   0.99393  -0.11963
C          C       0.95354   0.49755   0.99409  -0.11983
C          C       0.49760   0.54399   0.99349  -0.11933
C          C       0.45585   0.95354   0.99382  -0.12032
C          C       0.04630   0.50223   0.99375  -0.12043
C          C       0.36733   0.47734   0.16766   0.07118
C          C       0.52259   0.88997   0.16779   0.07140
C          C       0.10989   0.63256   0.16822   0.07156
C          C       0.63260   0.52260   0.16774   0.07077
C          C       0.47730   0.10997   0.16818   0.07114
C          C       0.88998   0.36720   0.16655   0.07203
C          C       0.34181   0.47858   0.15864   0.05685
C          C       0.52132   0.86319   0.15891   0.05635
C          C       0.13664   0.65809   0.15910   0.05749
C          C       0.65816   0.52142   0.15875   0.05667
C          C       0.47855   0.13673   0.15923   0.05656
C          C       0.86321   0.34169   0.15756   0.05683
C          C       0.32070   0.46430   0.25273  -0.12169
C          C       0.53563   0.85640   0.25297  -0.12107
C          C       0.14351   0.67917   0.25358  -0.12156
C          C       0.67919   0.53567   0.25332  -0.12156
C          C       0.46423   0.14360   0.25311  -0.12192
C          C       0.85638   0.32055   0.25145  -0.12146
C          C       0.29624   0.46513   0.24631  -0.13930
C          C       0.53477   0.83111   0.24661  -0.13861
C          C       0.16881   0.70360   0.24719  -0.13920
C          C       0.70366   0.53486   0.24721  -0.13644
C          C       0.46508   0.16889   0.24642  -0.13913
C          C       0.83110   0.29609   0.24474  -0.13628
C          C       0.29254   0.48101   0.14810   0.04013
C          C       0.51883   0.81146   0.14852   0.03848
C          C       0.18837   0.70732   0.14865   0.03973
C          C       0.70746   0.51903   0.14882   0.03985
C          C       0.48102   0.18844   0.14814   0.03976
C          C       0.81149   0.29240   0.14658   0.03952
C          C       0.26669   0.48234   0.14667   0.02925
C          C       0.51754   0.78430   0.14718   0.03067
C          C       0.21553   0.73319   0.14724   0.02945
C          C       0.73330   0.51767   0.14801   0.02938
C          C       0.48232   0.21561   0.14629   0.03037
C          C       0.78429   0.26656   0.14494   0.03155
C          C       0.48898   0.37289   0.15810   0.07881
C          C       0.62709   0.11594   0.15816   0.07917
C          C       0.88390   0.51097   0.15856   0.07945
C          C       0.51091   0.62706   0.15789   0.07893
C          C       0.37278   0.88386   0.15794   0.07933
C          C       0.11603   0.48894   0.15804   0.07926
C          C       0.48672   0.34567   0.15387   0.04843
C          C       0.65428   0.14091   0.15370   0.04742
C          C       0.85892   0.51318   0.15460   0.04874
C          C       0.51318   0.65428   0.15400   0.04850
C          C       0.34558   0.85889   0.15365   0.04812
C          C       0.14103   0.48677   0.15363   0.04816
C          C       0.50115   0.33919   0.24858  -0.11559
C          C       0.66074   0.16193   0.24798  -0.11830
C          C       0.83796   0.49861   0.24905  -0.11932
C          C       0.49859   0.66068   0.24841  -0.11649
C          C       0.33915   0.83790   0.24784  -0.11628
C          C       0.16198   0.50130   0.24818  -0.11889
C          C       0.49985   0.31366   0.24548  -0.13028
C          C       0.68624   0.18619   0.24459  -0.13299
C          C       0.81372   0.49991   0.24643  -0.13062
C          C       0.49995   0.68623   0.24591  -0.13248
C          C       0.31359   0.81371   0.24499  -0.13254
C          C       0.18622   0.50002   0.24521  -0.13047
C          C       0.48313   0.29361   0.15105   0.07188
C          C       0.70627   0.18944   0.15023   0.07198
C          C       0.81043   0.51674   0.15281   0.07281
C          C       0.51685   0.70637   0.15242   0.07197
C          C       0.29347   0.81047   0.15134   0.07211
C          C       0.18952   0.48323   0.15104   0.07216
C          C       0.46847   0.30000   0.05678  -0.13603
C          C       0.69992   0.16829   0.05648  -0.13779
C          C       0.83150   0.53152   0.05877  -0.13626
C          C       0.53166   0.70008   0.05849  -0.13681
C          C       0.29983   0.83154   0.05738  -0.13417
C          C       0.16846   0.46849   0.05692  -0.13528
C          C       0.47051   0.32581   0.05721  -0.10941
C          C       0.67414   0.14449   0.05719  -0.10833
C          C       0.85528   0.52948   0.05862  -0.10963
C          C       0.52957   0.67424   0.05823  -0.10941
C          C       0.32566   0.85528   0.05752  -0.10956
C          C       0.14468   0.47052   0.05717  -0.10975
C          C       0.50636   0.26585   0.13993  -0.13320
C          C       0.73403   0.24045   0.13961  -0.13555
C          C       0.75948   0.49363   0.14000  -0.13403
C          C       0.49358   0.73407   0.14054  -0.13612
C          C       0.26574   0.75954   0.13902  -0.13370
C          C       0.24049   0.50636   0.13924  -0.13283
C          C       0.45676   0.24077   0.15752  -0.07481
C          C       0.75907   0.21587   0.15566  -0.07286
C          C       0.78397   0.54313   0.16341  -0.07561
C          C       0.54314   0.75922   0.16045  -0.07348
C          C       0.24056   0.78390   0.16156  -0.07578
C          C       0.21600   0.45683   0.16005  -0.07577
C          C       0.24140   0.45757   0.15486  -0.13507
C          C       0.54237   0.78386   0.15512  -0.13681
C          C       0.21596   0.75842   0.15646  -0.13531
C          C       0.75858   0.54242   0.15783  -0.13570
C          C       0.45750   0.21610   0.15297  -0.13690
C          C       0.78376   0.24123   0.15071  -0.13743
C          C       0.42874   0.23751   0.17392   0.57106
C          C       0.76224   0.19106   0.17108   0.57147
C          C       0.80847   0.57106   0.18563   0.57169
C          C       0.57111   0.76256   0.17974   0.57210
C          C       0.23694   0.80830   0.18324   0.56927
C          C       0.19147   0.42887   0.18027   0.57106
C          C       0.29077   0.53592   0.13437   0.55723
C          C       0.46394   0.75468   0.13476   0.55647
C          C       0.24516   0.70925   0.13423   0.55780
C          C       0.70920   0.46411   0.13459   0.55653
C          C       0.53592   0.24516   0.13488   0.55742
C          C       0.75488   0.29073   0.13443   0.55746
C          C       0.48784   0.48753   0.10109  -0.03037
C          C       0.51235   0.00024   0.10143  -0.03092
C          C      -0.00039   0.51203   0.10178  -0.03086
C          C       0.51212   0.51244   0.10108  -0.03064
C          C       0.48745  -0.00036   0.10147  -0.03131
C          C       0.00024   0.48775   0.10152  -0.03091
C          C       0.48706   0.46063   0.09115   0.05345
C          C       0.53925   0.02634   0.09142   0.05337
C          C       0.97351   0.51282   0.09183   0.05463
C          C       0.51290   0.53933   0.09109   0.05294
C          C       0.46054   0.97354   0.09139   0.05415
C          C       0.02635   0.48697   0.09144   0.05459
C          C       0.48167   0.26641   0.15087   0.06107
C          C       0.73345   0.21518   0.14964   0.05979
C          C       0.78472   0.51827   0.15314   0.06304
C          C       0.51828   0.73356   0.15241   0.06050
C          C       0.26623   0.78475   0.15160   0.06230
C          C       0.21523   0.48170   0.15113   0.06186
C          C       0.50727   0.24126   0.13976  -0.09326
C          C       0.75867   0.26591   0.13897  -0.09445
C          C       0.73399   0.49274   0.13983  -0.09197
C          C       0.49263   0.75864   0.14017  -0.09287
C          C       0.24120   0.73398   0.13911  -0.09227
C          C       0.26599   0.50727   0.13917  -0.09258
C          C       0.40829   0.48245   0.08197   0.19863
C          C       0.51745   0.92577   0.08223   0.19728
C          C       0.07403   0.59161   0.08263   0.19801
C          C       0.59167   0.51749   0.08201   0.19732
C          C       0.48246   0.07415   0.08256   0.19760
C          C       0.92578   0.40819   0.08129   0.19856
C          C       0.31388   0.49548   0.05462  -0.13762
C          C       0.50433   0.81829   0.05501  -0.13820
C          C       0.18145   0.68603   0.05460  -0.13790
C          C       0.68621   0.50462   0.05471  -0.13708
C          C       0.49553   0.18155   0.05491  -0.13697
C          C       0.81834   0.31380   0.05350  -0.13794
C          C       0.33802   0.49412   0.05900  -0.10850
C          C       0.50572   0.84380   0.05939  -0.10471
C          C       0.15592   0.66191   0.05895  -0.10619
C          C       0.66206   0.50596   0.05881  -0.10887
C          C       0.49415   0.15605   0.05961  -0.10593
C          C       0.84385   0.33794   0.05808  -0.10608
C          C       0.48477   0.40898   0.07056   0.20186
C          C       0.59095   0.07562   0.07065   0.20202
C          C       0.92422   0.51523   0.07091   0.20152
C          C       0.51519   0.59097   0.07036   0.20196
C          C       0.40886   0.92421   0.07060   0.20211
C          C       0.07568   0.48466   0.07062   0.20241
C          C       0.42764   0.49922   0.17939  -0.17719
C          C       0.50061   0.92833   0.17930  -0.17647
C          C       0.07154   0.57222   0.17940  -0.17644
C          C       0.57226   0.50065   0.17892  -0.17622
C          C       0.49919   0.07154   0.17998  -0.17631
C          C       0.92833   0.42751   0.17885  -0.17858
C          C       0.46033   0.48551   0.60093   0.05992
C          C       0.51456   0.97488   0.60120   0.05940
C          C       0.02514   0.53972   0.60162   0.05933
C          C       0.53970   0.51456   0.60090   0.05941
C          C       0.48552   0.02519   0.60151   0.05942
C          C       0.97488   0.46039   0.60115   0.05968
C          C       0.44030   0.46792   0.50773  -0.12332
C          C       0.53204   0.97237   0.50756  -0.12299
C          C       0.02763   0.55965   0.50782  -0.12334
C          C       0.55967   0.53201   0.50719  -0.12229
C          C       0.46797   0.02764   0.50817  -0.12358
C          C       0.97244   0.44041   0.50757  -0.12345
C          C       0.41513   0.46708   0.49526  -0.17246
C          C       0.53286   0.94803   0.49508  -0.17218
C          C       0.05197   0.58478   0.49508  -0.17155
C          C       0.58482   0.53281   0.49464  -0.17233
C          C       0.46713   0.05195   0.49567  -0.17209
C          C       0.94811   0.41526   0.49470  -0.17219
C          C       0.45337   0.50104   0.68646  -0.11560
C          C       0.49913   0.95248   0.68713  -0.11485
C          C       0.04757   0.54676   0.68753  -0.11494
C          C       0.54670   0.49917   0.68684  -0.11535
C          C       0.50101   0.04768   0.68712  -0.11474
C          C       0.95239   0.45340   0.68667  -0.11547
C          C       0.46987   0.43861   0.67531  -0.12228
C          C       0.56150   0.03132   0.67568  -0.12511
C          C       0.96863   0.53007   0.67647  -0.12479
C          C       0.53016   0.56147   0.67561  -0.12252
C          C       0.43861   0.96868   0.67604  -0.12558
C          C       0.03133   0.46996   0.67580  -0.12388
C          C       0.46906   0.41333   0.66733  -0.18269
C          C       0.58681   0.05578   0.66787  -0.18236
C          C       0.94414   0.53087   0.66847  -0.18207
C          C       0.53104   0.58679   0.66758  -0.18199
C          C       0.41333   0.94420   0.66800  -0.18176
C          C       0.05580   0.46914   0.66780  -0.18277
C          C       0.50102   0.43061   0.48121  -0.17316
C          C       0.56956   0.07040   0.48155  -0.17160
C          C       0.92968   0.49916   0.48114  -0.17224
C          C       0.49924   0.56955   0.48082  -0.17163
C          C       0.43058   0.92968   0.48101  -0.17133
C          C       0.07038   0.50097   0.48129  -0.17283
C          C       0.50251   0.45604   0.49385  -0.11881
C          C       0.54411   0.04648   0.49408  -0.11983
C          C       0.95363   0.49768   0.49381  -0.11895
C          C       0.49767   0.54408   0.49353  -0.11820
C          C       0.45602   0.95362   0.49378  -0.11953
C          C       0.04645   0.50248   0.49402  -0.11950
C          C       0.36730   0.47732   0.66800   0.07188
C          C       0.52261   0.88998   0.66794   0.07118
C          C       0.11002   0.63272   0.66755   0.07111
C          C       0.63272   0.52275   0.66751   0.07115
C          C       0.47739   0.11007   0.66828   0.07186
C          C       0.89008   0.36740   0.66701   0.07187
C          C       0.34176   0.47855   0.65915   0.05626
C          C       0.52132   0.86320   0.65866   0.05598
C          C       0.13681   0.65820   0.65855   0.05753
C          C       0.65823   0.52148   0.65870   0.05715
C          C       0.47868   0.13686   0.65941   0.05632
C          C       0.86331   0.34188   0.65824   0.05690
C          C       0.32052   0.46400   0.75233  -0.12051
C          C       0.53567   0.85635   0.75218  -0.12151
C          C       0.14350   0.67950   0.75148  -0.12190
C          C       0.67948   0.53603   0.75189  -0.12128
C          C       0.46433   0.14370   0.75321  -0.12256
C          C       0.85667   0.32068   0.75146  -0.12133
C          C       0.29606   0.46482   0.74606  -0.14025
C          C       0.53474   0.83102   0.74536  -0.13881
C          C       0.16883   0.70389   0.74523  -0.13824
C          C       0.70389   0.53511   0.74575  -0.13965
C          C       0.46527   0.16903   0.74694  -0.13743
C          C       0.83137   0.29624   0.74525  -0.13981
C          C       0.29247   0.48098   0.64899   0.03974
C          C       0.51869   0.81140   0.64736   0.03875
C          C       0.18861   0.70734   0.64846   0.03841
C          C       0.70740   0.51882   0.64888   0.03828
C          C       0.48131   0.18866   0.64915   0.03892
C          C       0.81159   0.29264   0.64831   0.04092
C          C       0.26663   0.48233   0.64781   0.03063
C          C       0.51732   0.78419   0.64571   0.03104
C          C       0.21581   0.73317   0.64736   0.03155
C          C       0.73319   0.51736   0.64800   0.03070
C          C       0.48263   0.21584   0.64753   0.03154
C          C       0.78443   0.26679   0.64739   0.02921
C          C       0.48892   0.37293   0.65775   0.07904
C          C       0.62723   0.11610   0.65821   0.07979
C          C       0.88392   0.51095   0.65855   0.07891
C          C       0.51129   0.62725   0.65769   0.07931
C          C       0.37293   0.88397   0.65787   0.07899
C          C       0.11603   0.48899   0.65814   0.07937
C          C       0.48666   0.34572   0.65379   0.04788
C          C       0.65442   0.14110   0.65399   0.04815
C          C       0.85895   0.51318   0.65494   0.04945
C          C       0.51349   0.65444   0.65368   0.04806
C          C       0.34574   0.85897   0.65386   0.04902
C          C       0.14101   0.48677   0.65421   0.04829
C          C       0.50117   0.33931   0.74841  -0.11924
C          C       0.66080   0.16209   0.74838  -0.11896
C          C       0.83800   0.49853   0.74928  -0.11876
C          C       0.49888   0.66080   0.74812  -0.11868
C          C       0.33931   0.83811   0.74880  -0.11587
C          C       0.16195   0.50138   0.74876  -0.11874
C          C       0.49986   0.31378   0.74560  -0.13159
C          C       0.68633   0.18631   0.74563  -0.13283
C          C       0.81371   0.49970   0.74656  -0.12979
C          C       0.50005   0.68627   0.74516  -0.13268
C          C       0.31379   0.81387   0.74617  -0.13037
C          C       0.18621   0.50013   0.74610  -0.13247
C          C       0.48305   0.29365   0.65166   0.07180
C          C       0.70648   0.18957   0.65197   0.07170
C          C       0.81034   0.51649   0.65294   0.07195
C          C       0.51681   0.70636   0.65113   0.07183
C          C       0.29370   0.81046   0.65194   0.07154
C          C       0.18954   0.48331   0.65229   0.07152
C          C       0.46833   0.29997   0.55743  -0.13561
C          C       0.70016   0.16849   0.55785  -0.13529
C          C       0.83143   0.53140   0.55917  -0.13857
C          C       0.53165   0.70010   0.55725  -0.13633
C          C       0.30002   0.83145   0.55748  -0.13639
C          C       0.16848   0.46848   0.55826  -0.13764
C          C       0.47038   0.32579   0.55753  -0.11005
C          C       0.67435   0.14472   0.55784  -0.10950
C          C       0.85530   0.52952   0.55924  -0.10909
C          C       0.52975   0.67435   0.55749  -0.10942
C          C       0.32583   0.85523   0.55741  -0.10946
C          C       0.14467   0.47046   0.55816  -0.10817
C          C       0.50643   0.26605   0.64126  -0.13138
C          C       0.73418   0.24054   0.64231  -0.13312
C          C       0.75925   0.49315   0.64414  -0.13020
C          C       0.49339   0.73396   0.64039  -0.13394
C          C       0.26605   0.75943   0.64291  -0.13099
C          C       0.24056   0.50653   0.64271  -0.13442
C          C       0.45684   0.24077   0.65908  -0.07384
C          C       0.75935   0.21610   0.65876  -0.07421
C          C       0.78388   0.54277   0.65783  -0.07151
C          C       0.54301   0.75918   0.65729  -0.07380
C          C       0.24088   0.78389   0.65725  -0.07083
C          C       0.21594   0.45693   0.65881  -0.07427
C          C       0.24129   0.45756   0.65359  -0.13636
C          C       0.54216   0.78378   0.65220  -0.13691
C          C       0.21624   0.75845   0.65258  -0.13827
C          C       0.75854   0.54215   0.65284  -0.13869
C          C       0.45776   0.21620   0.65431  -0.13753
C          C       0.78397   0.24152   0.65374  -0.13595
C          C       0.42873   0.23714   0.67715   0.57116
C          C       0.76291   0.19155   0.67554   0.57170
C          C       0.80872   0.57069   0.67314   0.57220
C          C       0.57111   0.76271   0.67423   0.57116
C          C       0.23748   0.80854   0.67316   0.56987
C          C       0.19119   0.42901   0.67648   0.57153
C          C       0.29083   0.53592   0.64026   0.55670
C          C       0.46367   0.75451   0.63727   0.55695
C          C       0.24551   0.70918   0.64259   0.55793
C          C       0.70903   0.46366   0.64321   0.55667
C          C       0.53633   0.24573   0.63771   0.55775
C          C       0.75487   0.29079   0.63995   0.55718
C          C       0.48787   0.48759   0.60086  -0.03085
C          C       0.51250   0.00035   0.60121  -0.03082
C          C      -0.00031   0.51219   0.60152  -0.03068
C          C       0.51216   0.51249   0.60088  -0.03098
C          C       0.48760  -0.00026   0.60134  -0.03135
C          C       0.00032   0.48792   0.60134  -0.03077
C          C       0.48707   0.46070   0.59087   0.05340
C          C       0.53942   0.02643   0.59117   0.05426
C          C       0.97360   0.51298   0.59147   0.05428
C          C       0.51299   0.53940   0.59088   0.05297
C          C       0.46069   0.97363   0.59129   0.05344
C          C       0.02642   0.48713   0.59128   0.05422
C          C       0.48166   0.26648   0.65182   0.06083
C          C       0.73367   0.21530   0.65222   0.06159
C          C       0.78455   0.51784   0.65292   0.05905
C          C       0.51815   0.73350   0.65071   0.06091
C          C       0.26655   0.78468   0.65188   0.05984
C          C       0.21527   0.48186   0.65240   0.06013
C          C       0.50753   0.24156   0.64137  -0.09476
C          C       0.75877   0.26604   0.64232  -0.09321
C          C       0.73380   0.49234   0.64415  -0.09432
C          C       0.49239   0.75851   0.64004  -0.09510
C          C       0.24149   0.73390   0.64304  -0.09484
C          C       0.26600   0.50731   0.64288  -0.09501
C          C       0.40831   0.48255   0.58228   0.19763
C          C       0.51749   0.92582   0.58245   0.19701
C          C       0.07421   0.59169   0.58241   0.19668
C          C       0.59169   0.51748   0.58205   0.19742
C          C       0.48256   0.07424   0.58275   0.19763
C          C       0.92582   0.40840   0.58168   0.19814
C          C       0.31393   0.49570   0.55630  -0.13772
C          C       0.50421   0.81833   0.55423  -0.13827
C          C       0.18186   0.68585   0.55586  -0.13800
C          C       0.68597   0.50415   0.55600  -0.13679
C          C       0.49580   0.18176   0.55577  -0.13860
C          C       0.81828   0.31406   0.55558  -0.13791
C          C       0.33807   0.49433   0.56051  -0.10646
C          C       0.50566   0.84387   0.55906  -0.10695
C          C       0.15631   0.66176   0.56011  -0.10860
C          C       0.66188   0.50562   0.56010  -0.10661
C          C       0.49435   0.15622   0.56008  -0.10798
C          C       0.84381   0.33818   0.55965  -0.10544
C          C       0.48474   0.40902   0.57014   0.20292
C          C       0.59113   0.07573   0.57069   0.20333
C          C       0.92427   0.51530   0.57071   0.20246
C          C       0.51547   0.59112   0.57007   0.20255
C          C       0.40901   0.92428   0.57035   0.20264
C          C       0.07573   0.48476   0.57043   0.20276
C          C       0.42771   0.49935   0.67946  -0.17722
C          C       0.50082   0.92851   0.68010  -0.17637
C          C       0.07155   0.57241   0.68026  -0.17626
C          C       0.57236   0.50084   0.67976  -0.17668
C          C       0.49931   0.07164   0.68007  -0.17688
C          C       0.92842   0.42774   0.67927  -0.17680
N          N       0.48372   0.38350   0.05558  -0.29135
N          N       0.61644   0.10003   0.05564  -0.29107
N          N       0.89981   0.51630   0.05602  -0.29213
N          N       0.51625   0.61646   0.05541  -0.29123
N          N       0.38337   0.89979   0.05555  -0.29144
N          N       0.10011   0.48362   0.05557  -0.29201
N          N       0.38298   0.48166   0.06501  -0.28487
N          N       0.51824   0.90124   0.06516  -0.28431
N          N       0.09852   0.61695   0.06550  -0.28539
N          N       0.61700   0.51831   0.06500  -0.28425
N          N       0.48168   0.09867   0.06555  -0.28414
N          N       0.90127   0.38286   0.06399  -0.28515
N          N       0.48366   0.38352   0.55517  -0.29167
N          N       0.61663   0.10015   0.55576  -0.29262
N          N       0.89984   0.51637   0.55599  -0.29188
N          N       0.51658   0.61663   0.55511  -0.29214
N          N       0.38353   0.89984   0.55532  -0.29141
N          N       0.10015   0.48368   0.55551  -0.29167
N          N       0.38299   0.48178   0.56544  -0.28423
N          N       0.51824   0.90127   0.56542  -0.28394
N          N       0.09878   0.61695   0.56517  -0.28407
N          N       0.61699   0.51822   0.56502  -0.28425
N          N       0.48181   0.09879   0.56573  -0.28469
N          N       0.90127   0.38310   0.56451  -0.28474
O          O       0.81024   0.59256   0.14617  -0.48405
O          O       0.40762   0.21857   0.12628  -0.48398
O          O       0.78067   0.18853   0.11960  -0.48381
O          O       0.18981   0.40746   0.13966  -0.48402
O          O       0.59241   0.78142   0.13314  -0.48424
O          O       0.21680   0.80963   0.14629  -0.48266
O          O       0.82867   0.57065   0.26114  -0.47890
O          O       0.42850   0.25722   0.25426  -0.47813
O          O       0.74302   0.17150   0.25442  -0.47845
O          O       0.17109   0.42910   0.25507  -0.47871
O          O       0.57102   0.74291   0.26151  -0.47874
O          O       0.25789   0.82905   0.25499  -0.47323
O          O       0.68644   0.45922   0.20707  -0.45736
O          O       0.54084   0.22731   0.20707  -0.45330
O          O       0.77269   0.31345   0.20714  -0.45717
O          O       0.31348   0.54084   0.20713  -0.45370
O          O       0.45885   0.77242   0.20710  -0.45608
O          O       0.22740   0.68652   0.20694  -0.45794
O          O       0.70940   0.44543   0.07342  -0.42027
O          O       0.55455   0.26398   0.07330  -0.42070
O          O       0.73600   0.29054   0.07337  -0.42151
O          O       0.29058   0.55459   0.07323  -0.42127
O          O       0.44536   0.73582   0.07308  -0.42043
O          O       0.26407   0.70948   0.07324  -0.42073
O          O       0.81164   0.59151   0.61854  -0.48489
O          O       0.40756   0.21761   0.63335  -0.48387
O          O       0.78212   0.18970   0.62878  -0.48329
O          O       0.18853   0.40788   0.62654  -0.48351
O          O       0.59215   0.78177   0.62658  -0.48461
O          O       0.21866   0.81070   0.62386  -0.48347
O          O       0.82777   0.57124   0.76086  -0.47792
O          O       0.42851   0.25724   0.75443  -0.47841
O          O       0.74309   0.17149   0.75477  -0.47969
O          O       0.17190   0.42895   0.76108  -0.47878
O          O       0.57151   0.74312   0.75453  -0.47783
O          O       0.25682   0.82837   0.75531  -0.47936
O          O       0.68625   0.45933   0.71355  -0.45606
O          O       0.54120   0.22756   0.70709  -0.45669
O          O       0.77274   0.31338   0.71339  -0.45355
O          O       0.31344   0.54063   0.71333  -0.45655
O          O       0.45911   0.77287   0.70716  -0.45617
O          O       0.22712   0.68645   0.71341  -0.45685
O          O       0.70928   0.44453   0.58680  -0.42043
O          O       0.55515   0.26506   0.57964  -0.42094
O          O       0.73594   0.29066   0.57979  -0.42129
O          O       0.29073   0.55473   0.58008  -0.42095
O          O       0.44469   0.73516   0.57996  -0.42117
O          O       0.26493   0.70943   0.58663  -0.42085

