data_crystal

_audit_creation_method 'AiiDA-DDEC plugin'

_cell_length_a        42.68606
_cell_length_b        42.74390
_cell_length_c         4.69672

_cell_angle_alpha     90.01500
_cell_angle_beta     89.76574
_cell_angle_gamma     91.50918

_symmetry_space_group_name_Hall 'P 1'
_symmetry_space_group_name_H-M  'P 1'

loop_
_symmetry_equiv_pos_as_xyz
 'x,y,z'

loop_
_atom_site_label
_atom_site_type_symbol
_atom_site_fract_x
_atom_site_fract_y
_atom_site_fract_z
_atom_site_charge
H          H       0.51860   0.54470   0.89745   0.08863
H          H       0.98119   0.95576   0.40029   0.08935
H          H       0.45557   0.01713   0.14922   0.08942
H          H       0.04240   0.48055   0.65663   0.08797
H          H       0.48082   0.95441   0.34551   0.08923
H          H       0.01849   0.54415   0.85121   0.08844
H          H       0.54466   0.48285   0.09661   0.08855
H          H       0.95737   0.01995   0.59647   0.08872
H          H       0.02159   0.04428   0.39799   0.08845
H          H       0.48182   0.45424   0.90296   0.08877
H          H       0.95485   0.51856   0.65328   0.08909
H          H       0.54437   0.98194   0.14697   0.08827
H          H       0.97810   0.45582   0.85561   0.08999
H          H       0.51856   0.04420   0.34370   0.08798
H          H       0.04505   0.98116   0.60081   0.08834
H          H       0.45541   0.51626   0.09779   0.08987
H          H       0.56454   0.54936   0.19038   0.09888
H          H       0.93506   0.95339   0.69878   0.09875
H          H       0.45267   0.06305   0.44392   0.09940
H          H       0.04293   0.43458   0.95200   0.10003
H          H       0.43498   0.95081   0.04959   0.09948
H          H       0.06454   0.54657   0.55301   0.09794
H          H       0.54856   0.43713   0.80049   0.09930
H          H       0.95700   0.06619   0.30283   0.10068
H          H       0.06733   0.04671   0.69262   0.09862
H          H       0.43588   0.44983   0.20061   0.09981
H          H       0.95298   0.56431   0.95010   0.09791
H          H       0.54729   0.93621   0.44269   0.09968
H          H       0.93209   0.45313   0.56320   0.09890
H          H       0.56449   0.04818   0.04590   0.09942
H          H       0.04697   0.93532   0.30507   0.09816
H          H       0.45224   0.56180   0.79954   0.09910
H          H       0.60547   0.47441   0.72267   0.09476
H          H       0.89737   0.02944   0.22752   0.08912
H          H       0.52872   0.10528   0.96877   0.09546
H          H       0.96487   0.39620   0.48515   0.09241
H          H       0.39535   0.02624   0.51830   0.08978
H          H       0.10304   0.47130   0.03114   0.09563
H          H       0.47359   0.39298   0.27453   0.09525
H          H       0.03475   0.10417   0.77718   0.09197
H          H       0.10457   0.96917   0.23338   0.09544
H          H       0.39443   0.52366   0.72493   0.09501
H          H       0.03021   0.60512   0.48172   0.09607
H          H       0.47125   0.89385   0.97598   0.09003
H          H       0.89462   0.53023   0.02635   0.09516
H          H       0.60505   0.97359   0.51805   0.09528
H          H       0.96929   0.89515   0.76953   0.09010
H          H       0.52797   0.60509   0.26499   0.09411
H          H       0.55867   0.46816   0.45306   0.10300
H          H       0.94455   0.03403   0.95764   0.10272
H          H       0.53330   0.05850   0.69951   0.10237
H          H       0.96251   0.44299   0.21461   0.10173
H          H       0.44194   0.03151   0.79127   0.10182
H          H       0.05559   0.46639   0.29786   0.10324
H          H       0.46777   0.43962   0.54504   0.10255
H          H       0.03717   0.05706   0.04181   0.10123
H          H       0.05804   0.96558   0.95760   0.10290
H          H       0.44141   0.53014   0.45453   0.10283
H          H       0.03375   0.55834   0.20854   0.10357
H          H       0.46653   0.94048   0.70460   0.10259
H          H       0.94143   0.53423   0.29807   0.10285
H          H       0.55808   0.96769   0.78945   0.10326
H          H       0.96581   0.94185   0.04294   0.10273
H          H       0.53295   0.55868   0.53863   0.10198
H          H       0.63068   0.46510   0.09369   0.10787
H          H       0.87327   0.04058   0.60343   0.10555
H          H       0.53847   0.13183   0.33224   0.10740
H          H       0.95243   0.37248   0.86278   0.10333
H          H       0.37151   0.03712   0.13765   0.10514
H          H       0.12940   0.46166   0.66445   0.10703
H          H       0.46473   0.36631   0.90803   0.10636
H          H       0.04805   0.12743   0.40247   0.10383
H          H       0.13033   0.95965   0.60217   0.10845
H          H       0.36912   0.53331   0.09459   0.10708
H          H       0.03945   0.63222   0.84950   0.10709
H          H       0.46040   0.86886   0.35782   0.10491
H          H       0.86822   0.53943   0.65831   0.10736
H          H       0.63066   0.96418   0.14785   0.10782
H          H       0.95888   0.86953   0.38774   0.10615
H          H       0.53754   0.63099   0.89485   0.10796
H          H       0.60695   0.55667   0.37167   0.10438
H          H       0.89165   0.94747   0.87424   0.10457
H          H       0.44720   0.10461   0.63454   0.10530
H          H       0.04678   0.39093   0.12780   0.10669
H          H       0.39130   0.94393   0.87586   0.10493
H          H       0.10678   0.55304   0.37631   0.10451
H          H       0.55569   0.39586   0.61608   0.10477
H          H       0.95376   0.11066   0.12788   0.10654
H          H       0.10833   0.05157   0.88527   0.10464
H          H       0.39285   0.44211   0.37917   0.10496
H          H       0.94749   0.60501   0.13329   0.10381
H          H       0.55364   0.89349   0.61770   0.10451
H          H       0.89089   0.44776   0.37417   0.10356
H          H       0.60690   0.05551   0.86593   0.10462
H          H       0.05248   0.89377   0.12636   0.10337
H          H       0.44564   0.60383   0.61709   0.10479
H          H       0.68224   0.53976   0.13613   0.05641
H          H       0.81990   0.96882   0.64479   0.05798
H          H       0.46614   0.18069   0.38525   0.05674
H          H       0.02469   0.29011   0.52428   0.06672
H          H       0.31940   0.96338   0.10507   0.05729
H          H       0.18215   0.53443   0.61303   0.05683
H          H       0.53934   0.31903   0.85960   0.05641
H          H       0.97811   0.21141   0.74065   0.06645
H          H       0.18181   0.03253   0.64965   0.05686
H          H       0.31670   0.45962   0.14466   0.05664
H          H       0.96625   0.67916   0.90188   0.05779
H          H       0.53354   0.82040   0.39346   0.05697
H          H       0.81643   0.46587   0.61145   0.05624
H          H       0.68148   0.03777   0.09570   0.05670
H          H       0.03253   0.82202   0.34924   0.05744
H          H       0.46443   0.67883   0.84760   0.05702
H          H       0.71650   0.54586   0.54182   0.09495
H          H       0.78495   0.96196   0.04884   0.09709
H          H       0.45977   0.21463   0.78716   0.09512
H          H       0.04453   0.24949   0.77954   0.11334
H          H       0.28457   0.95601   0.70044   0.09760
H          H       0.21685   0.53999   0.20777   0.09524
H          H       0.54599   0.28490   0.45524   0.09465
H          H       0.95828   0.25167   0.48448   0.11360
H          H       0.21561   0.03855   0.05580   0.09615
H          H       0.28196   0.45400   0.54940   0.09448
H          H       0.96000   0.71255   0.30971   0.09618
H          H       0.54081   0.78575   0.79541   0.09667
H          H       0.78212   0.45967   0.20789   0.09475
H          H       0.71593   0.04385   0.68806   0.09683
H          H       0.04034   0.78762   0.94312   0.09704
H          H       0.45882   0.71229   0.43890   0.09670
H          H       0.73469   0.47331   0.93527   0.10444
H          H       0.76467   0.03148   0.42286   0.10819
H          H       0.53266   0.23668   0.18173   0.10556
H          H       0.95887   0.28851   0.07970   0.12172
H          H       0.26392   0.02600   0.32364   0.10731
H          H       0.23422   0.46793   0.81941   0.10502
H          H       0.47332   0.26266   0.06244   0.10472
H          H       0.04392   0.21253   0.18344   0.12184
H          H       0.23558   0.96729   0.44100   0.10606
H          H       0.26464   0.52614   0.93819   0.10453
H          H       0.03023   0.73750   0.68672   0.10592
H          H       0.47093   0.76156   0.17413   0.10817
H          H       0.76394   0.53224   0.81388   0.10483
H          H       0.73564   0.97326   0.30784   0.10576
H          H       0.97128   0.76210   0.57321   0.10791
H          H       0.52948   0.73611   0.05591   0.10521
H          H       0.66594   0.56992   0.91042   0.04189
H          H       0.83180   0.93666   0.40994   0.04233
H          H       0.43555   0.16473   0.16109   0.04368
H          H       0.05092   0.33156   0.68177   0.03855
H          H       0.33197   0.93213   0.33837   0.04273
H          H       0.16613   0.56525   0.83734   0.04174
H          H       0.56918   0.33707   0.08084   0.04201
H          H       0.95108   0.17082   0.57913   0.03848
H          H       0.16824   0.06370   0.41832   0.04423
H          H       0.33370   0.42941   0.92168   0.04125
H          H       0.93511   0.66352   0.67273   0.04260
H          H       0.56545   0.83505   0.15655   0.04304
H          H       0.83132   0.43536   0.84116   0.04355
H          H       0.66603   0.06839   0.32318   0.04245
H          H       0.06453   0.83539   0.58730   0.04367
H          H       0.43351   0.66223   0.07708   0.04208
H          H       0.69304   0.45578   0.62129   0.05963
H          H       0.82023   0.05737   0.20703   0.04534
H          H       0.55030   0.19429   0.86157   0.06024
H          H       0.93477   0.31395   0.42205   0.05444
H          H       0.31750   0.05184   0.53840   0.04611
H          H       0.19115   0.45032   0.13128   0.06000
H          H       0.45494   0.30374   0.37791   0.06065
H          H       0.06719   0.18594   0.84496   0.05352
H          H       0.19192   0.94859   0.13357   0.06081
H          H       0.30687   0.54344   0.62653   0.06017
H          H       0.05013   0.69428   0.38369   0.05947
H          H       0.44499   0.81483   0.96068   0.04498
H          H       0.80623   0.54990   0.12959   0.06025
H          H       0.69284   0.95447   0.61364   0.06005
H          H       0.94390   0.81544   0.78404   0.04480
H          H       0.54828   0.69330   0.36144   0.06045
H          H       0.68672   0.45535   0.02844   0.11210
H          H       0.82740   0.06311   0.54922   0.09518
H          H       0.54942   0.18844   0.26891   0.11285
H          H       0.93547   0.31884   0.82185   0.10610
H          H       0.29077   0.05201   0.98812   0.12584
H          H       0.18535   0.45091   0.72547   0.11234
H          H       0.45558   0.30977   0.97165   0.11240
H          H       0.06635   0.18120   0.44367   0.10646
H          H       0.20361   0.91795   0.72948   0.12707
H          H       0.31300   0.54357   0.03315   0.11295
H          H       0.04925   0.68900   0.78906   0.11305
H          H       0.43886   0.82150   0.30396   0.09572
H          H       0.81227   0.54991   0.72235   0.11225
H          H       0.68715   0.95451   0.20732   0.11279
H          H       0.93779   0.82175   0.44167   0.09541
H          H       0.54791   0.68775   0.95506   0.11256
H          H       0.66478   0.42093   0.12240   0.10310
H          H       0.81257   0.09375   0.77018   0.11861
H          H       0.58344   0.16726   0.35325   0.10445
H          H       0.90255   0.34128   0.91635   0.11389
H          H       0.32480   0.05830   0.19382   0.09665
H          H       0.16290   0.41665   0.63785   0.10529
H          H       0.42075   0.32957   0.88510   0.10531
H          H       0.09844   0.15748   0.35178   0.11442
H          H       0.18631   0.94915   0.54023   0.11298
H          H       0.33531   0.57782   0.12388   0.10390
H          H       0.08393   0.66881   0.87282   0.10570
H          H       0.40821   0.80516   0.52641   0.11899
H          H       0.83461   0.58419   0.63053   0.10360
H          H       0.66530   0.91989   0.11883   0.10506
H          H       0.90751   0.80469   0.22145   0.11883
H          H       0.58233   0.66721   0.86628   0.10497
H          H       0.70475   0.42468   0.21962   0.12567
H          H       0.79327   0.05642   0.75578   0.12615
H          H       0.58109   0.20703   0.45555   0.12618
H          H       0.90355   0.30159   0.02025   0.12643
H          H       0.31042   0.08913   0.97358   0.11843
H          H       0.20279   0.41983   0.53397   0.12605
H          H       0.42472   0.28991   0.78466   0.12660
H          H       0.09900   0.19718   0.24616   0.12645
H          H       0.16373   0.91490   0.62781   0.10473
H          H       0.29536   0.57452   0.22507   0.12670
H          H       0.08025   0.70835   0.97818   0.12653
H          H       0.44562   0.78795   0.51092   0.12624
H          H       0.79467   0.58086   0.53162   0.12639
H          H       0.70514   0.92380   0.01461   0.12715
H          H       0.94533   0.78837   0.23410   0.12672
H          H       0.57897   0.70680   0.76279   0.12613
H          H       0.66239   0.40619   0.66970   0.12509
H          H       0.85490   0.10329   0.12107   0.12055
H          H       0.59927   0.16513   0.89979   0.12570
H          H       0.88940   0.34810   0.45184   0.12513
H          H       0.35114   0.09869   0.61026   0.12111
H          H       0.15913   0.40148   0.09298   0.12621
H          H       0.40518   0.33159   0.34095   0.12607
H          H       0.11171   0.15091   0.81153   0.12524
H          H       0.16041   0.89948   0.17283   0.12656
H          H       0.33819   0.59274   0.67082   0.12569
H          H       0.09946   0.66574   0.41615   0.12597
H          H       0.39846   0.84630   0.88301   0.12084
H          H       0.83758   0.59907   0.08204   0.12643
H          H       0.66212   0.90484   0.57168   0.12635
H          H       0.89710   0.84630   0.86579   0.12083
H          H       0.59754   0.66433   0.32008   0.12608
H          H       0.63173   0.42108   0.45949   0.11075
H          H       0.87972   0.08136   0.89661   0.12506
H          H       0.58340   0.13423   0.68819   0.11104
H          H       0.90915   0.37723   0.24473   0.11804
H          H       0.37672   0.07780   0.83347   0.12150
H          H       0.12892   0.41762   0.30381   0.11406
H          H       0.42037   0.36302   0.55058   0.11256
H          H       0.09162   0.12202   0.01877   0.11829
H          H       0.13000   0.91529   0.96560   0.11176
H          H       0.36861   0.57727   0.45863   0.11121
H          H       0.08370   0.63451   0.20762   0.11344
H          H       0.41977   0.87268   0.65821   0.12166
H          H       0.86792   0.58375   0.29365   0.11127
H          H       0.63156   0.91997   0.78428   0.11235
H          H       0.91782   0.87263   0.09396   0.12254
H          H       0.58163   0.63317   0.53006   0.11271
H          H       0.63863   0.43571   0.81006   0.10862
H          H       0.87596   0.07196   0.26291   0.11890
H          H       0.56931   0.14037   0.04203   0.10969
H          H       0.92185   0.36890   0.59674   0.11365
H          H       0.37284   0.06771   0.46915   0.11817
H          H       0.13642   0.43162   0.95105   0.10922
H          H       0.43452   0.35690   0.19678   0.10894
H          H       0.07875   0.13077   0.66852   0.11401
H          H       0.13733   0.92929   0.31763   0.10879
H          H       0.36144   0.56287   0.81027   0.10864
H          H       0.06973   0.64100   0.56129   0.10893
H          H       0.42958   0.86943   0.02297   0.11837
H          H       0.86095   0.56918   0.94280   0.10879
H          H       0.63850   0.93445   0.43246   0.10971
H          H       0.92804   0.87001   0.72878   0.11846
H          H       0.56757   0.63987   0.17825   0.10904
H          H       0.65826   0.58224   0.26984   0.10074
H          H       0.84024   0.92442   0.76983   0.10180
H          H       0.42283   0.15553   0.52360   0.10250
H          H       0.06400   0.33505   0.03496   0.10159
H          H       0.34031   0.91969   0.97728   0.10206
H          H       0.15893   0.57755   0.47906   0.10019
H          H       0.58160   0.34565   0.72039   0.10136
H          H       0.93793   0.16743   0.22562   0.10186
H          H       0.15975   0.07612   0.78000   0.10175
H          H       0.34059   0.41691   0.27996   0.10013
H          H       0.92267   0.65494   0.03321   0.10089
H          H       0.57766   0.84381   0.51591   0.10156
H          H       0.83971   0.42289   0.47983   0.10151
H          H       0.65868   0.08091   0.96447   0.10038
H          H       0.07662   0.84449   0.22691   0.10186
H          H       0.42084   0.65403   0.71760   0.10113
H          H       0.69343   0.58130   0.46654   0.11939
H          H       0.80494   0.92507   0.96691   0.12023
H          H       0.42360   0.19064   0.72122   0.11865
H          H       0.05532   0.30120   0.23603   0.11281
H          H       0.30512   0.91991   0.78090   0.12086
H          H       0.19401   0.57592   0.27883   0.12003
H          H       0.58102   0.31057   0.52147   0.11941
H          H       0.94724   0.20111   0.02510   0.11187
H          H       0.19487   0.07574   0.97676   0.12090
H          H       0.30558   0.41861   0.48099   0.12002
H          H       0.92336   0.69019   0.23028   0.12104
H          H       0.57702   0.80859   0.71271   0.12046
H          H       0.80457   0.42327   0.28312   0.11982
H          H       0.69375   0.07963   0.76407   0.12032
H          H       0.07676   0.80939   0.02865   0.12136
H          H       0.42217   0.68922   0.51979   0.12061
H          H       0.66814   0.61317   0.51686   0.13038
H          H       0.83029   0.89330   0.01420   0.12984
H          H       0.39177   0.16362   0.77112   0.12978
H          H       0.09266   0.32029   0.28083   0.12712
H          H       0.33099   0.88858   0.73121   0.13066
H          H       0.16940   0.60835   0.23171   0.12989
H          H       0.61268   0.33781   0.47208   0.13040
H          H       0.90955   0.18284   0.98093   0.12653
H          H       0.16915   0.10726   0.02545   0.12976
H          H       0.33018   0.38616   0.52836   0.13037
H          H       0.89164   0.66310   0.28108   0.13084
H          H       0.60880   0.83566   0.76000   0.13107
H          H       0.83031   0.39177   0.23358   0.12931
H          H       0.66873   0.11169   0.71567   0.13034
H          H       0.10798   0.83708   0.98088   0.13137
H          H       0.39004   0.66260   0.47040   0.13131
H          H       0.60887   0.57303   0.97302   0.11989
H          H       0.88851   0.93215   0.48101   0.11696
H          H       0.43141   0.10908   0.25065   0.11628
H          H       0.06472   0.38837   0.70392   0.12233
H          H       0.38874   0.92893   0.26434   0.11731
H          H       0.10894   0.56955   0.78302   0.12054
H          H       0.57215   0.39374   0.01061   0.11884
H          H       0.93609   0.11428   0.55479   0.12279
H          H       0.11275   0.06747   0.50879   0.11741
H          H       0.39115   0.42563   0.96978   0.12038
H          H       0.93122   0.60657   0.73892   0.11903
H          H       0.56937   0.89203   0.22487   0.11863
H          H       0.88703   0.43183   0.75471   0.11645
H          H       0.60879   0.07185   0.26842   0.12033
H          H       0.06804   0.89194   0.50974   0.11765
H          H       0.42945   0.60522   0.01399   0.11946
H          H       0.60483   0.58969   0.63267   0.12590
H          H       0.89306   0.91545   0.14132   0.12486
H          H       0.41655   0.10114   0.90924   0.12370
H          H       0.08318   0.38657   0.36718   0.12487
H          H       0.39368   0.91256   0.60394   0.12462
H          H       0.10581   0.58675   0.12275   0.12617
H          H       0.58827   0.39982   0.35098   0.12537
H          H       0.91749   0.11651   0.89080   0.12394
H          H       0.10531   0.08179   0.16650   0.12492
H          H       0.39377   0.40798   0.63156   0.12579
H          H       0.91473   0.60138   0.39867   0.12699
H          H       0.58603   0.89733   0.88432   0.12570
H          H       0.89410   0.41752   0.09800   0.12377
H          H       0.60532   0.08895   0.60799   0.12655
H          H       0.08388   0.89850   0.85017   0.12649
H          H       0.41278   0.60035   0.35540   0.12600
H          H       0.62770   0.60950   0.89387   0.12280
H          H       0.86905   0.89610   0.39868   0.12215
H          H       0.39496   0.12448   0.14855   0.12334
H          H       0.09708   0.36377   0.65221   0.12134
H          H       0.37037   0.89233   0.34814   0.12323
H          H       0.12895   0.60555   0.85614   0.12161
H          H       0.60876   0.37758   0.09555   0.12276
H          H       0.90425   0.13956   0.60505   0.12146
H          H       0.12970   0.10390   0.40225   0.12144
H          H       0.37116   0.38946   0.90346   0.12223
H          H       0.89494   0.62372   0.65848   0.12299
H          H       0.60562   0.87476   0.14195   0.12268
H          H       0.87009   0.39533   0.86002   0.12036
H          H       0.62814   0.10818   0.34124   0.12205
H          H       0.10447   0.87568   0.59886   0.12288
H          H       0.39323   0.62261   0.09527   0.12314
C          C       0.53682   0.52813   0.86536  -0.14814
C          C       0.96371   0.97315   0.36992  -0.14856
C          C       0.47276   0.03567   0.11665  -0.15144
C          C       0.02436   0.46285   0.62394  -0.14724
C          C       0.46288   0.97130   0.37775  -0.14828
C          C       0.03610   0.52694   0.88300  -0.14854
C          C       0.52783   0.46397   0.12820  -0.14821
C          C       0.97546   0.03759   0.62973  -0.14810
C          C       0.03895   0.02677   0.36727  -0.14727
C          C       0.46349   0.47066   0.87034  -0.14943
C          C       0.97248   0.53671   0.62235  -0.14791
C          C       0.52714   0.96344   0.11611  -0.14773
C          C       0.96063   0.47320   0.88722  -0.14860
C          C       0.53669   0.02755   0.37546  -0.14835
C          C       0.02733   0.96311   0.63100  -0.14796
C          C       0.47250   0.53492   0.12812  -0.14967
C          C       0.56382   0.53135   0.02799  -0.12662
C          C       0.93659   0.97118   0.53458  -0.12395
C          C       0.47062   0.06260   0.28040  -0.12509
C          C       0.02524   0.43578   0.78770  -0.12945
C          C       0.43590   0.96865   0.21357  -0.12607
C          C       0.06320   0.52895   0.71864  -0.12579
C          C       0.53064   0.43713   0.96435  -0.12643
C          C       0.97467   0.06480   0.46729  -0.12945
C          C       0.06590   0.02867   0.53114  -0.12708
C          C       0.43646   0.46752   0.03526  -0.12746
C          C       0.97087   0.56360   0.78647  -0.12806
C          C       0.52939   0.93652   0.27999  -0.12585
C          C       0.93356   0.47117   0.72473  -0.12615
C          C       0.56370   0.03043   0.21054  -0.12646
C          C       0.02897   0.93615   0.46764  -0.12748
C          C       0.47010   0.56170   0.96277  -0.12491
C          C       0.58921   0.51115  -0.00360   0.05133
C          C       0.91200   0.99222   0.50063   0.05201
C          C       0.49162   0.08839   0.24704   0.05356
C          C       0.00296   0.41103   0.75588   0.05475
C          C       0.41082   0.98924   0.24589   0.05369
C          C       0.08803   0.50822   0.75405   0.05195
C          C       0.51035   0.41083  -0.00186   0.05194
C          C       0.99700   0.08950   0.50167   0.05640
C          C       0.09019   0.00713   0.50292   0.05206
C          C       0.41085   0.48736   0.00125   0.05272
C          C       0.99241   0.58891   0.75495   0.05241
C          C       0.50847   0.91069   0.24796   0.05382
C          C       0.90913   0.49251   0.75451   0.05112
C          C       0.58902   0.01022   0.24314   0.05084
C          C       0.00729   0.91095   0.49869   0.05370
C          C       0.49081   0.58772  -0.00670   0.05128
C          C       0.58660   0.49015   0.76921  -0.14492
C          C       0.91557   0.01304   0.27333  -0.14814
C          C       0.51239   0.08614   0.01754  -0.14477
C          C       0.98223   0.41445   0.52957  -0.14858
C          C       0.41387   0.01013   0.47318  -0.14898
C          C       0.08464   0.48747   0.98262  -0.14458
C          C       0.48942   0.41254   0.22683  -0.14394
C          C       0.01751   0.08591   0.72927  -0.14953
C          C       0.08667   0.98609   0.27670  -0.14438
C          C       0.41341   0.50812   0.77210  -0.14486
C          C       0.01338   0.58632   0.52740  -0.14446
C          C       0.48757   0.91300   0.02143  -0.14892
C          C       0.91267   0.51353   0.98084  -0.14321
C          C       0.58627   0.98939   0.47156  -0.14471
C          C       0.98622   0.91382   0.72488  -0.14849
C          C       0.51173   0.58579   0.22035  -0.14415
C          C       0.55924   0.48709   0.60647  -0.12871
C          C       0.94306   0.01508   0.11030  -0.12755
C          C       0.51445   0.05878   0.85438  -0.12910
C          C       0.98147   0.44180   0.36651  -0.12964
C          C       0.44113   0.01266   0.63733  -0.12758
C          C       0.05701   0.48529   0.14449  -0.12757
C          C       0.48664   0.43980   0.39019  -0.12830
C          C       0.01824   0.05840   0.88989  -0.12940
C          C       0.05945   0.98450   0.11100  -0.12875
C          C       0.44086   0.51128   0.60861  -0.13056
C          C       0.01488   0.55902   0.36304  -0.12912
C          C       0.48542   0.94025   0.85772  -0.12827
C          C       0.94006   0.51532   0.14460  -0.12923
C          C       0.55886   0.98656   0.63563  -0.13033
C          C       0.98474   0.94112   0.88904  -0.12665
C          C       0.51406   0.55864   0.38532  -0.12843
C          C       0.53206   0.50409   0.66556   0.08097
C          C       0.96935   0.99684   0.16830   0.07971
C          C       0.49650   0.03135   0.91437   0.08401
C          C       0.00080   0.46830   0.42336   0.08002
C          C       0.46797   0.99516   0.57897   0.08113
C          C       0.03056   0.50329   0.08494   0.08071
C          C       0.50399   0.46762   0.33075   0.08156
C          C       0.99899   0.03192   0.83005   0.07941
C          C       0.03322   0.00299   0.16681   0.08306
C          C       0.46813   0.49451   0.66810   0.08255
C          C       0.99619   0.53201   0.42102   0.08039
C          C       0.50338   0.96770   0.91554   0.08013
C          C       0.96641   0.49702   0.08696   0.08280
C          C       0.53184   0.00374   0.57741   0.08249
C          C       0.00354   0.96803   0.83117   0.07989
C          C       0.49627   0.53102   0.32942   0.08215
C          C       0.63388   0.48492   0.23657  -0.16012
C          C       0.86892   0.02080   0.74542  -0.15852
C          C       0.51902   0.13430   0.47998  -0.15851
C          C       0.97192   0.36816   0.00440  -0.14388
C          C       0.36744   0.01706  -0.00160  -0.15536
C          C       0.13280   0.48122   0.51871  -0.16019
C          C       0.48441   0.36434   0.76216  -0.15762
C          C       0.02881   0.13219   0.25926  -0.14488
C          C       0.13374   0.97931   0.74652  -0.15791
C          C       0.36580   0.51360   0.23874  -0.15859
C          C       0.01977   0.63443  -0.00486  -0.15731
C          C       0.48046   0.86591   0.49682  -0.15606
C          C       0.86491   0.51976   0.51394  -0.15924
C          C       0.63384   0.98387   0.00331  -0.15910
C          C       0.97901   0.86656   0.24791  -0.15815
C          C       0.51787   0.63335   0.75084  -0.16054
C          C       0.65665   0.48307   0.44675   0.02911
C          C       0.84712   0.02418   0.96363   0.02565
C          C       0.52175   0.15724   0.68967   0.02738
C          C       0.96704   0.34694   0.22507  -0.00459
C          C       0.34556   0.01981   0.78130   0.02508
C          C       0.15562   0.47880   0.30779   0.02894
C          C       0.48253   0.34141   0.55204   0.02834
C          C       0.03428   0.15344   0.03975  -0.00510
C          C       0.15625   0.97679   0.95820   0.02845
C          C       0.34290   0.51567   0.44948   0.02812
C          C       0.02204   0.65717   0.20665   0.02670
C          C       0.47758   0.84401   0.71533   0.02321
C          C       0.84221   0.52204   0.30347   0.03019
C          C       0.65662   0.98186   0.79172   0.02762
C          C       0.97625   0.84473   0.02890   0.02570
C          C       0.52019   0.65614   0.53951   0.02911
C          C       0.66231   0.50860   0.64109   0.09522
C          C       0.83925   0.99853   0.15048   0.09715
C          C       0.49654   0.16229   0.88734   0.09636
C          C       0.99256   0.33940   0.40530   0.10040
C          C       0.33828   0.99390   0.59636   0.09712
C          C       0.16176   0.50405   0.11118   0.09450
C          C       0.50804   0.33716   0.35576   0.09538
C          C       0.00907   0.16152   0.85809   0.09942
C          C       0.16247   0.00217   0.15294   0.09506
C          C       0.33711   0.49029   0.64554   0.09554
C          C       0.99661   0.66183   0.40252   0.09559
C          C       0.50349   0.83791   0.89982   0.09834
C          C       0.83618   0.49665   0.10832   0.09667
C          C       0.66228   0.00727   0.59594   0.09553
C          C       0.00227   0.83869   0.84373   0.09637
C          C       0.49480   0.66081   0.34491   0.09602
C          C       0.64423   0.53644   0.59773   0.02727
C          C       0.85553   0.96962   0.10305   0.02371
C          C       0.46836   0.14318   0.85046   0.02592
C          C       0.02222   0.35499   0.35673   0.02199
C          C       0.35499   0.96534   0.64579   0.02582
C          C       0.14395   0.53215   0.15201   0.02639
C          C       0.53571   0.35705   0.39516   0.02561
C          C       0.97910   0.14648   0.90383   0.02068
C          C       0.14521   0.03051   0.10975   0.02425
C          C       0.35533   0.46247   0.60433   0.02750
C          C       0.96837   0.64285   0.35993   0.02408
C          C       0.53212   0.85615   0.84966   0.02345
C          C       0.85386   0.46858   0.15092   0.02419
C          C       0.64420   0.03515   0.63842   0.02562
C          C       0.03097   0.85671   0.89397   0.02484
C          C       0.46661   0.64173   0.38936   0.02441
C          C       0.62050   0.53567   0.39498  -0.19527
C          C       0.87927   0.96920   0.89876  -0.19418
C          C       0.46845   0.11906   0.65073  -0.19322
C          C       0.02431   0.37871   0.15317  -0.18700
C          C       0.37860   0.96543   0.84969  -0.19308
C          C       0.12003   0.53184   0.35452  -0.19597
C          C       0.53483   0.38092   0.59676  -0.19537
C          C       0.97643   0.12253   0.10506  -0.18589
C          C       0.12154   0.03032   0.90659  -0.19474
C          C       0.37920   0.46306   0.40102  -0.19585
C          C       0.96877   0.61923   0.15614  -0.19325
C          C       0.53208   0.87971   0.64460  -0.19279
C          C       0.87761   0.46897   0.35326  -0.19525
C          C       0.62043   0.03450   0.84242  -0.19493
C          C       0.03086   0.88012   0.10002  -0.19429
C          C       0.46692   0.61810   0.59348  -0.19399
C          C       0.61478   0.51093   0.20372   0.07572
C          C       0.88628   0.99363   0.70760   0.07356
C          C       0.49270   0.11407   0.45415   0.07075
C          C       0.00020   0.38555   0.96390   0.06342
C          C       0.38520   0.99017   0.03859   0.07073
C          C       0.11384   0.50738   0.54789   0.07408
C          C       0.51019   0.38517   0.79104   0.07300
C          C       0.00023   0.11515   0.29575   0.06254
C          C       0.11539   0.00587   0.71313   0.07276
C          C       0.38505   0.48764   0.20817   0.07334
C          C       0.99343   0.61440   0.96332   0.07149
C          C       0.50741   0.88500   0.45531   0.07115
C          C       0.88369   0.49349   0.54619   0.07435
C          C       0.61467   0.00986   0.03504   0.07329
C          C       0.00606   0.88543   0.28997   0.07288
C          C       0.49154   0.61326   0.78472   0.07442
C          C       0.69452   0.51933   0.05880   0.04911
C          C       0.80655   0.98826   0.56236   0.05284
C          C       0.48641   0.19412   0.30489   0.04941
C          C       0.00516   0.29465   0.66898   0.06213
C          C       0.30592   0.98288   0.18525   0.05051
C          C       0.19435   0.51409   0.69261   0.04921
C          C       0.51910   0.30544   0.93822   0.04925
C          C       0.99744   0.20651   0.59492   0.06049
C          C       0.19447   0.01243   0.57042   0.04791
C          C       0.30454   0.47998   0.06477   0.04846
C          C       0.98610   0.69319   0.82137   0.04893
C          C       0.51421   0.80587   0.31101   0.05099
C          C       0.80404   0.48617   0.69029   0.04817
C          C       0.69435   0.01789   0.17593   0.05050
C          C       0.01341   0.80711   0.43128   0.05067
C          C       0.48459   0.69244   0.92621   0.04938
C          C       0.73038   0.52646   0.47155  -0.12782
C          C       0.77005   0.98016   0.97140  -0.12857
C          C       0.47923   0.22955   0.71805  -0.12843
C          C       0.02585   0.25016   0.93760  -0.11327
C          C       0.26973   0.97438   0.77689  -0.12921
C          C       0.23066   0.52065   0.27967  -0.12865
C          C       0.52659   0.26993   0.52476  -0.12803
C          C       0.97698   0.25095   0.32629  -0.11278
C          C       0.23003   0.01965   0.98355  -0.12799
C          C       0.26820   0.47338   0.47763  -0.12749
C          C       0.97838   0.72841   0.23440  -0.12625
C          C       0.52253   0.76991   0.71905  -0.12829
C          C       0.76820   0.47906   0.27775  -0.12874
C          C       0.73038   0.02513   0.76228  -0.12645
C          C       0.02249   0.77138   0.02216  -0.12910
C          C       0.47757   0.72776   0.51217  -0.12783
C          C       0.74175   0.48676   0.12072  -0.10017
C          C       0.75736   0.01801   0.60796  -0.10680
C          C       0.51905   0.24306   0.36697  -0.09957
C          C       0.97747   0.27208   0.10326  -0.15167
C          C       0.25682   0.01250   0.13840  -0.10508
C          C       0.24161   0.48131   0.63405  -0.09970
C          C       0.48685   0.25635   0.87636  -0.09849
C          C       0.02534   0.22898   0.16020  -0.15029
C          C       0.24260   0.98105   0.62492  -0.09847
C          C       0.25726   0.51273   0.12346  -0.09967
C          C       0.01642   0.74365   0.87159  -0.09801
C          C       0.48459   0.75505   0.35773  -0.10641
C          C       0.75683   0.51877   0.62854  -0.09991
C          C       0.74280   0.98690   0.12333  -0.09796
C          C       0.98490   0.75585   0.38753  -0.10673
C          C       0.51584   0.74239   0.87151  -0.09911
C          C       0.72203   0.51067   0.21871   0.06505
C          C       0.77805   0.99554   0.71571   0.06007
C          C       0.49510   0.22210   0.46461   0.06476
C          C       0.00211   0.27254   0.90340   0.05981
C          C       0.27757   0.98996   0.03148   0.06046
C          C       0.22204   0.50517   0.53379   0.06458
C          C       0.51071   0.27738   0.77819   0.06347
C          C       0.00071   0.22854   0.36022   0.05985
C          C       0.22217   0.00412   0.72838   0.06533
C          C       0.27684   0.48886   0.22356   0.06473
C          C       0.99393   0.72156   0.97809   0.06473
C          C       0.50706   0.77702   0.46426   0.06144
C          C       0.77653   0.49484   0.53059   0.06510
C          C       0.72232   0.00975   0.01820   0.06309
C          C       0.00688   0.77820   0.27803   0.06098
C          C       0.49295   0.72066   0.76777   0.06630
C          C       0.67286   0.45200   0.48109   0.08075
C          C       0.83535   0.05732   0.01028   0.09829
C          C       0.55332   0.17430   0.71927   0.08202
C          C       0.93390   0.33361   0.27192   0.08769
C          C       0.33291   0.05253   0.73182   0.09801
C          C       0.17104   0.44729   0.27500   0.08088
C          C       0.45141   0.32359   0.52082   0.08199
C          C       0.06764   0.16619  -0.00560   0.08989
C          C       0.17183   0.94538   0.99119   0.08220
C          C       0.32703   0.54694   0.48419   0.08199
C          C       0.05338   0.67456   0.23853   0.08439
C          C       0.44464   0.83000   0.76518   0.09955
C          C       0.82641   0.55334   0.27031   0.08178
C          C       0.67280   0.95078   0.75714   0.08305
C          C       0.94343   0.83045   0.98093   0.09975
C          C       0.55159   0.67344   0.50456   0.08096
C          C       0.65105   0.56958   0.71541   0.09975
C          C       0.84716   0.93662   0.21752   0.09880
C          C       0.43544   0.14922   0.97051   0.09900
C          C       0.05366   0.34510   0.47715   0.09853
C          C       0.34727   0.93227   0.53020   0.09882
C          C       0.15134   0.56518   0.03402   0.09866
C          C       0.56888   0.35210   0.27506   0.10188
C          C       0.94797   0.15722   0.78295   0.09980
C          C       0.15278   0.06353   0.22754   0.10153
C          C       0.34831   0.42947   0.72379   0.10041
C          C       0.93524   0.64851   0.47845   0.10020
C          C       0.56529   0.85018   0.96315   0.09859
C          C       0.84665   0.43555   0.03283   0.10197
C          C       0.65121   0.06822   0.51971   0.09850
C          C       0.06423   0.85075   0.77925   0.09878
C          C       0.43355   0.64734   0.27220   0.10000
C          C       0.66879   0.58775   0.48282  -0.39465
C          C       0.82960   0.91874   0.98246  -0.39642
C          C       0.41723   0.16568   0.73677  -0.39625
C          C       0.06752   0.32407   0.24948  -0.39468
C          C       0.32989   0.91397   0.76470  -0.39793
C          C       0.16953   0.58290   0.26513  -0.39445
C          C       0.58724   0.33557   0.50669  -0.39580
C          C       0.93459   0.17849   0.01125  -0.39393
C          C       0.17013   0.08183   0.99267  -0.39721
C          C       0.33006   0.41160   0.49425  -0.39513
C          C       0.91709   0.66521   0.24642  -0.39589
C          C       0.58333   0.83356   0.72832  -0.39699
C          C       0.82931   0.41718   0.26713  -0.39643
C          C       0.66917   0.08627   0.75017  -0.39393
C          C       0.08253   0.83448   0.01370  -0.39878
C          C       0.41550   0.66432   0.50439  -0.39603
C          C       0.62120   0.58637   0.80737  -0.42044
C          C       0.87633   0.91909   0.31369  -0.41939
C          C       0.41861   0.11908   0.07379  -0.42170
C          C       0.07591   0.37276   0.55250  -0.41718
C          C       0.37689   0.91555   0.43229  -0.42200
C          C       0.12185   0.58270   0.94557  -0.41784
C          C       0.58542   0.38276   0.17944  -0.41958
C          C       0.92515   0.13012   0.70585  -0.42126
C          C       0.12329   0.08016   0.33006  -0.42260
C          C       0.37802   0.41221   0.81043  -0.41924
C          C       0.91808   0.61810   0.57246  -0.42042
C          C       0.58253   0.88052   0.05732  -0.41951
C          C       0.87632   0.41910   0.93250  -0.41881
C          C       0.62145   0.08522   0.43094  -0.41958
C          C       0.08111   0.88115   0.68071  -0.42008
C          C       0.41631   0.61693   0.18064  -0.42017
C          C       0.68314   0.43769   0.19593  -0.40671
C          C       0.81618   0.06841   0.76141  -0.39313
C          C       0.56736   0.18517   0.43223  -0.41024
C          C       0.91813   0.32285   0.99107  -0.41512
C          C       0.31379   0.06376   0.98240  -0.39468
C          C       0.18136   0.43312   0.55999  -0.40883
C          C       0.43758   0.31229   0.80748  -0.41066
C          C       0.08361   0.17648   0.27564  -0.41755
C          C       0.18223   0.93131   0.70522  -0.41044
C          C       0.31682   0.56126   0.19979  -0.40914
C          C       0.06724   0.68609   0.95270  -0.41053
C          C       0.43357   0.81017   0.51641  -0.39405
C          C       0.81614   0.56762   0.55565  -0.40789
C          C       0.68347   0.93671   0.04135  -0.41035
C          C       0.93276   0.81029   0.22956  -0.39344
C          C       0.56574   0.68467   0.78904  -0.40897
C          C       0.64986   0.42743   0.61551  -0.40680
C          C       0.86329   0.07972   0.07494  -0.41934
C          C       0.57763   0.15198   0.84740  -0.40919
C          C       0.91246   0.35861   0.40086  -0.41113
C          C       0.36018   0.07544   0.65816  -0.41952
C          C       0.14727   0.42319   0.14597  -0.41035
C          C       0.42652   0.34528   0.39237  -0.40955
C          C       0.08852   0.14081   0.86393  -0.41289
C          C       0.14831   0.92107   0.12161  -0.41077
C          C       0.35038   0.57127   0.61618  -0.40830
C          C       0.07789   0.65241   0.36533  -0.41211
C          C       0.42186   0.85632   0.83487  -0.41810
C          C       0.84978   0.57764   0.13705  -0.41071
C          C       0.64969   0.92617   0.62641  -0.41102
C          C       0.92032   0.85656   0.91537  -0.41983
C          C       0.57590   0.65119   0.37354  -0.41008
C          C       0.50007   0.49934   0.49896   0.02774
C          C       0.00123  -0.00005  -0.00147   0.02877
C          C       0.49993  -0.00056   0.74664   0.02749
C          C       0.99856   0.50013   0.25383   0.02823
N          N       0.68641   0.50355   0.83053  -0.26063
N          N       0.81450   0.00416   0.33421  -0.27044
N          N       0.50198   0.18687   0.07429  -0.26148
N          N       0.98672   0.31780   0.62436  -0.23654
N          N       0.31363   0.99903   0.41208  -0.26740
N          N       0.18601   0.49861   0.92248  -0.26128
N          N       0.50325   0.31259   0.16745  -0.26123
N          N       0.01543   0.18300   0.63922  -0.23375
N          N       0.18663   0.99677   0.34082  -0.26065
N          N       0.31284   0.49546   0.83485  -0.26287
N          N       0.00178   0.68634   0.59053  -0.26268
N          N       0.49826   0.81285   0.08352  -0.26787
N          N       0.81206   0.50184   0.91946  -0.26134
N          N       0.68657   0.00230   0.40666  -0.26311
N          N       0.99721   0.81370   0.65957  -0.26830
N          N       0.50013   0.68527   0.15598  -0.26239

