data_crystal

_audit_creation_method 'AiiDA-DDEC plugin'

_cell_length_a        49.63560
_cell_length_b        49.63684
_cell_length_c         4.73709

_cell_angle_alpha     90.11916
_cell_angle_beta     90.36784
_cell_angle_gamma     90.07204

_symmetry_space_group_name_Hall 'P 1'
_symmetry_space_group_name_H-M  'P 1'

loop_
_symmetry_equiv_pos_as_xyz
 'x,y,z'

loop_
_atom_site_label
_atom_site_type_symbol
_atom_site_fract_x
_atom_site_fract_y
_atom_site_fract_z
_atom_site_charge
H          H       0.25621   0.79149   0.56788   0.10903
H          H       0.75405   0.72780   0.70207   0.09684
H          H       0.72105   0.28054   0.85353   0.11143
H          H       0.24796   0.22817   0.33720   0.09951
H          H       0.74850   0.20775   0.44793   0.11006
H          H       0.28412   0.28662   0.89899   0.09890
H          H       0.27644   0.72222   0.07800   0.11024
H          H       0.71997   0.78505   0.11858   0.10023
H          H       0.74857   0.27168   0.17941   0.10138
H          H       0.22191   0.21956   0.66683   0.11282
H          H       0.24309   0.79199   0.93033   0.11010
H          H       0.77549   0.71408   0.35002   0.11269
H          H       0.22105   0.72288   0.41127   0.11051
H          H       0.75840   0.79183   0.98997   0.10661
H          H       0.78362   0.21527   0.59309   0.09885
H          H       0.24897   0.29364   0.05516   0.10990
H          H       0.29442   0.78172   0.90273   0.10681
H          H       0.71185   0.72879   0.98144   0.11145
H          H       0.68451   0.28395   0.50534   0.11396
H          H       0.28907   0.22860   0.04530   0.11264
H          H       0.71331   0.21282   0.09011   0.10804
H          H       0.32446   0.28674   0.60790   0.10372
H          H       0.31887   0.71739   0.35432   0.10288
H          H       0.67828   0.78559   0.39493   0.10351
H          H       0.79092   0.27142   0.46032   0.11395
H          H       0.18612   0.21624   0.01734   0.11308
H          H       0.20462   0.78343   0.59428   0.10808
H          H       0.81074   0.70708   0.00349   0.11437
H          H       0.17858   0.71916   0.13333   0.10251
H          H       0.79591   0.78586   0.66390   0.10820
H          H       0.82511   0.21568   0.87083   0.10035
H          H       0.21453   0.28859   0.41591   0.10767
H          H       0.38959   0.79019   0.77032   0.10578
H          H       0.61298   0.71118   0.80655   0.10591
H          H       0.60943   0.29489   0.22499   0.10167
H          H       0.38730   0.21068   0.19595   0.10632
H          H       0.59635   0.21386   0.49564   0.10530
H          H       0.41007   0.28847   0.51165   0.10500
H          H       0.40709   0.71048   0.47781   0.10380
H          H       0.59116   0.78897   0.48890   0.10554
H          H       0.88982   0.28953   0.29549   0.10788
H          H       0.11260   0.20470   0.29027   0.10146
H          H       0.10877   0.79264   0.72416   0.10584
H          H       0.89068   0.70466   0.70994   0.10523
H          H       0.09096   0.71300   0.01521   0.10324
H          H       0.90036   0.78608   0.99118   0.10574
H          H       0.91038   0.21011   0.02186   0.10376
H          H       0.09830   0.28557   0.01900   0.10380
H          H       0.44159   0.71220   0.68404   0.09988
H          H       0.55773   0.78694   0.69023   0.09900
H          H       0.55940   0.21582   0.32114   0.09920
H          H       0.44191   0.28738   0.29828   0.09741
H          H       0.58800   0.28364   0.85002   0.08850
H          H       0.41240   0.21834   0.84445   0.09218
H          H       0.41165   0.78077   0.13614   0.09068
H          H       0.58854   0.71951   0.15712   0.09209
H          H       0.94513   0.21433   0.18801   0.09550
H          H       0.06243   0.28389   0.19540   0.09754
H          H       0.05685   0.71472   0.81559   0.09822
H          H       0.93775   0.78554   0.81215   0.10164
H          H       0.08592   0.78318   0.35713   0.09156
H          H       0.91066   0.71646   0.34312   0.09283
H          H       0.91448   0.28094   0.66643   0.09154
H          H       0.09019   0.21529   0.66248   0.09010
H          H       0.48133   0.71261   0.97606   0.08847
H          H       0.51798   0.78661   0.97601   0.08964
H          H       0.51990   0.21419   0.02458   0.08822
H          H       0.48165   0.28724   0.01434   0.08840
H          H       0.54718   0.28418   0.58577   0.10083
H          H       0.45303   0.21733   0.57855   0.10292
H          H       0.45204   0.78215   0.40940   0.10225
H          H       0.54775   0.71775   0.41887   0.10240
H          H       0.98457   0.21356   0.48419   0.09034
H          H       0.02319   0.28583   0.48764   0.08871
H          H       0.01701   0.71429   0.52565   0.08808
H          H       0.97775   0.78711   0.52669   0.08831
H          H       0.04510   0.78402   0.08944   0.10356
H          H       0.95130   0.71687   0.08038   0.10137
H          H       0.95550   0.28225   0.93299   0.10500
H          H       0.04964   0.21532   0.92536   0.09980
H          H       0.46693   0.29760   0.65835   0.10038
H          H       0.53332   0.20317   0.66608   0.10359
H          H       0.53195   0.79778   0.33383   0.10192
H          H       0.46745   0.70211   0.33131   0.10292
H          H       0.53686   0.73131   0.77453   0.08842
H          H       0.46276   0.76827   0.76840   0.08731
H          H       0.46377   0.23171   0.22308   0.08796
H          H       0.53717   0.27016   0.22759   0.08982
H          H       0.96413   0.79709   0.16629   0.10153
H          H       0.03145   0.70363   0.17032   0.10309
H          H       0.03670   0.29628   0.84723   0.10333
H          H       0.96975   0.20186   0.83713   0.10205
H          H       0.03946   0.23002   0.28205   0.09020
H          H       0.96697   0.26890   0.28841   0.08738
H          H       0.96159   0.73139   0.72785   0.08890
H          H       0.03442   0.77029   0.73023   0.08853
H          H       0.46726   0.33813   0.39154   0.09544
H          H       0.53227   0.16250   0.39697   0.09134
H          H       0.53040   0.83847   0.60062   0.09128
H          H       0.46880   0.66144   0.59648   0.09527
H          H       0.53689   0.69163   0.06335   0.09952
H          H       0.46240   0.80823   0.05659   0.10005
H          H       0.46383   0.19182   0.93461   0.09770
H          H       0.53652   0.30989   0.94087   0.09932
H          H       0.96419   0.83771   0.90069   0.08891
H          H       0.03098   0.66296   0.90123   0.09294
H          H       0.03613   0.33723   0.11075   0.09002
H          H       0.97004   0.16140   0.10721   0.09241
H          H       0.03913   0.19026   0.56660   0.09822
H          H       0.96869   0.30823   0.58334   0.09680
H          H       0.96215   0.69172   0.43960   0.09766
H          H       0.03282   0.81002   0.43782   0.10121
H          H       0.53686   0.34321   0.72701   0.10498
H          H       0.46217   0.15777   0.73290   0.10397
H          H       0.46061   0.84302   0.25695   0.10494
H          H       0.53837   0.65732   0.26768   0.10440
H          H       0.45957   0.63853   0.95027   0.10660
H          H       0.54013   0.86079   0.96439   0.10517
H          H       0.54158   0.13957   0.03425   0.10587
H          H       0.45845   0.36202   0.04345   0.10713
H          H       0.03356   0.84736   0.25345   0.10452
H          H       0.96133   0.65948   0.22808   0.10491
H          H       0.96546   0.34458   0.74257   0.10417
H          H       0.04002   0.15852   0.78033   0.10526
H          H       0.96237   0.13570   0.45824   0.10683
H          H       0.04664   0.35985   0.49252   0.10188
H          H       0.03943   0.63818   0.54831   0.10743
H          H       0.95252   0.85727   0.53568   0.10279
H          H       0.46172   0.45500   0.14578   0.10607
H          H       0.53303   0.04438   0.15353   0.10704
H          H       0.53216   0.95646   0.83677   0.10674
H          H       0.46257   0.54595   0.84757   0.10618
H          H       0.53077   0.56721   0.36542   0.10325
H          H       0.46687   0.93126   0.36485   0.10291
H          H       0.46758   0.06993   0.62196   0.10257
H          H       0.52942   0.43292   0.63428   0.10264
H          H       0.95872   0.93554   0.18255   0.10806
H          H       0.02118   0.53873   0.70601   0.11353
H          H       0.03172   0.43314   0.75723   0.11456
H          H       0.98111   0.03827   0.28464   0.11130
H          H       0.03773   0.07088   0.88233   0.10326
H          H       0.96096   0.46243   0.33730   0.10743
H          H       0.96503   0.57436   0.12533   0.10295
H          H       0.03229   0.95264   0.63008   0.10725
H          H       0.45184   0.49269   0.81212   0.10727
H          H       0.54224   0.00697   0.81011   0.10890
H          H       0.54196   0.99376   0.18150   0.10987
H          H       0.45196   0.50873   0.18313   0.10711
H          H       0.52378   0.52606   0.65228   0.10945
H          H       0.47144   0.97326   0.64678   0.11072
H          H       0.47176   0.02805   0.33863   0.11098
H          H       0.52321   0.47432   0.34896   0.10851
H          H       0.96713   0.97224   0.86553   0.10967
H          H       0.02019   0.49658   0.42472   0.10111
H          H       0.02867   0.46974   0.10447   0.11121
H          H       0.97911   0.99614   0.56158   0.09927
H          H       0.03696   0.02882   0.15412   0.10265
H          H       0.95627   0.49794   0.69211   0.10992
H          H       0.96406   0.53324   0.84188   0.09956
H          H       0.04029   0.99119   0.32001   0.10618
H          H       0.64701   0.21082   0.05028   0.04056
H          H       0.35162   0.29933   0.94793   0.05268
H          H       0.34856   0.70280   0.02533   0.05212
H          H       0.65007   0.79891   0.05482   0.05262
H          H       0.34317   0.80543   0.17354   0.04574
H          H       0.66075   0.69768   0.21989   0.04536
H          H       0.65361   0.31344   0.83047   0.04583
H          H       0.33968   0.19777   0.78518   0.04504
H          H       0.14965   0.70510   0.46305   0.05254
H          H       0.84047   0.78872   0.42340   0.05343
H          H       0.85899   0.19816   0.50304   0.04451
H          H       0.14827   0.28955   0.46598   0.04064
H          H       0.84186   0.30136   0.70334   0.04455
H          H       0.15712   0.18706   0.69106   0.04588
H          H       0.15521   0.80800   0.32060   0.04530
H          H       0.83980   0.68772   0.24659   0.05655
H          H       0.67319   0.20636   0.60817   0.11479
H          H       0.35043   0.33509   0.61568   0.13002
H          H       0.34849   0.69456   0.59133   0.10911
H          H       0.65200   0.83476   0.38683   0.12981
H          H       0.32040   0.80418   0.62227   0.12464
H          H       0.68332   0.70289   0.67509   0.12891
H          H       0.67636   0.31707   0.37436   0.12363
H          H       0.31703   0.20277   0.33115   0.12705
H          H       0.15260   0.66927   0.13094   0.12983
H          H       0.83581   0.82466   0.10093   0.13005
H          H       0.83907   0.18265   0.93409   0.12040
H          H       0.17442   0.29476   0.90877   0.11306
H          H       0.83078   0.33067   0.13923   0.12036
H          H       0.17963   0.18335   0.15101   0.12286
H          H       0.17811   0.80596   0.87174   0.12505
H          H       0.83908   0.69063   0.66404   0.11955
H          H       0.64405   0.19907   0.41047   0.10300
H          H       0.35349   0.30747   0.37736   0.10665
H          H       0.37714   0.67493   0.50964   0.11891
H          H       0.64849   0.80724   0.62447   0.10789
H          H       0.34968   0.81026   0.82582   0.09634
H          H       0.65492   0.69311   0.87315   0.09520
H          H       0.64617   0.31795   0.17985   0.09909
H          H       0.34539   0.19304   0.13180   0.09586
H          H       0.14902   0.69690   0.89457   0.10804
H          H       0.83994   0.79696   0.86771   0.10785
H          H       0.86863   0.18863   0.13399   0.10419
H          H       0.14529   0.30147   0.10512   0.10348
H          H       0.81910   0.29678   0.15423   0.12605
H          H       0.14940   0.18227   0.34026   0.09950
H          H       0.14897   0.81256   0.66770   0.09648
H          H       0.86416   0.66550   0.70651   0.11172
H          H       0.65718   0.17450   0.65650   0.12586
H          H       0.38230   0.32633   0.47684   0.11964
H          H       0.34557   0.66676   0.35481   0.13011
H          H       0.62000   0.82652   0.52671   0.11979
H          H       0.33584   0.83649   0.60846   0.11998
H          H       0.67194   0.66886   0.65679   0.11944
H          H       0.65588   0.34617   0.39677   0.12218
H          H       0.32834   0.16880   0.34756   0.12095
H          H       0.12070   0.67704   0.98161   0.11814
H          H       0.86767   0.81841   0.94714   0.11489
H          H       0.86655   0.16035   0.89876   0.13135
H          H       0.15772   0.32620   0.85818   0.12499
H          H       0.84758   0.30625   0.35693   0.09630
H          H       0.15934   0.15415   0.12447   0.12230
H          H       0.16330   0.83855   0.88654   0.12074
H          H       0.83147   0.65978   0.84096   0.12858
H          H       0.62022   0.17115   0.01976   0.12055
H          H       0.38680   0.33365   0.03281   0.12603
H          H       0.38194   0.66679   0.94722   0.12477
H          H       0.61519   0.83359   0.97029   0.12580
H          H       0.37211   0.84492   0.25555   0.12203
H          H       0.63511   0.65644   0.30347   0.12068
H          H       0.62164   0.35028   0.75986   0.11997
H          H       0.36477   0.15627   0.70091   0.12137
H          H       0.11609   0.66928   0.54190   0.12412
H          H       0.87131   0.82710   0.52003   0.12645
H          H       0.89464   0.16593   0.49027   0.12136
H          H       0.12060   0.32900   0.50294   0.12047
H          H       0.86723   0.34286   0.78871   0.12107
H          H       0.12573   0.14954   0.75391   0.11992
H          H       0.12665   0.84745   0.23771   0.12223
H          H       0.87123   0.64950   0.25762   0.12612
H          H       0.60019   0.18335   0.73736   0.12425
H          H       0.41028   0.31507   0.82951   0.12338
H          H       0.40611   0.68394   0.15926   0.12067
H          H       0.59156   0.81501   0.17222   0.12037
H          H       0.39387   0.82634   0.48096   0.12295
H          H       0.61243   0.67307   0.53338   0.12335
H          H       0.60137   0.33039   0.53025   0.12432
H          H       0.38762   0.17257   0.47086   0.12351
H          H       0.09194   0.68646   0.33092   0.12122
H          H       0.89670   0.81193   0.31079   0.11719
H          H       0.91446   0.18362   0.74314   0.13044
H          H       0.09987   0.31467   0.76606   0.12402
H          H       0.88993   0.32653   0.02300   0.12369
H          H       0.10490   0.16907   0.97797   0.12298
H          H       0.10489   0.82911   0.00870   0.12349
H          H       0.89497   0.66744   0.05150   0.11385
H          H       0.59849   0.19904   0.07200   0.12141
H          H       0.39894   0.30217   0.15634   0.11298
H          H       0.39601   0.69773   0.83050   0.11311
H          H       0.60298   0.80208   0.84550   0.11262
H          H       0.39100   0.81784   0.11828   0.11815
H          H       0.61365   0.68187   0.17094   0.11862
H          H       0.60488   0.32157   0.89089   0.12101
H          H       0.38663   0.18148   0.83328   0.11913
H          H       0.10227   0.70028   0.65998   0.11319
H          H       0.88745   0.79702   0.63536   0.11229
H          H       0.90814   0.19816   0.41132   0.11759
H          H       0.10038   0.30043   0.42507   0.12028
H          H       0.88890   0.31747   0.66089   0.11825
H          H       0.10864   0.17793   0.61856   0.12047
H          H       0.10736   0.82046   0.37111   0.11786
H          H       0.88783   0.67789   0.40363   0.11135
H          H       0.44562   0.41502   0.51537   0.05941
H          H       0.55693   0.09327   0.44165   0.04508
H          H       0.55556   0.90753   0.55634   0.04615
H          H       0.44690   0.58558   0.47655   0.05895
H          H       0.54576   0.59824   0.71088   0.05092
H          H       0.45315   0.90203   0.69988   0.05233
H          H       0.45399   0.09924   0.28531   0.05134
H          H       0.54401   0.40274   0.29031   0.05135
H          H       0.93272   0.90316   0.95589   0.04916
H          H       0.05295   0.59049   0.95643   0.04498
H          H       0.06293   0.40470   0.09717   0.04481
H          H       0.94993   0.08738   0.04589   0.04585
H          H       0.05031   0.09955   0.21726   0.05154
H          H       0.95995   0.39432   0.29950   0.03950
H          H       0.95163   0.60069   0.78764   0.05259
H          H       0.03591   0.90631   0.80603   0.05361
H          H       0.41930   0.36138   0.68588   0.11158
H          H       0.57793   0.14372   0.75152   0.12470
H          H       0.59499   0.87881   0.48134   0.12083
H          H       0.42069   0.63925   0.30337   0.11309
H          H       0.56524   0.65562   0.58237   0.12051
H          H       0.43468   0.84420   0.57422   0.11883
H          H       0.43556   0.15696   0.41416   0.12074
H          H       0.56257   0.34494   0.41031   0.11917
H          H       0.91694   0.85020   0.24594   0.12500
H          H       0.07767   0.63871   0.27689   0.12321
H          H       0.08176   0.35308   0.80044   0.12582
H          H       0.90815   0.11199   0.96393   0.11839
H          H       0.06552   0.15839   0.10359   0.12130
H          H       0.93471   0.34630   0.98567   0.12554
H          H       0.93565   0.65932   0.90491   0.12151
H          H       0.06061   0.85126   0.94588   0.11737
H          H       0.43121   0.36753   0.33722   0.10877
H          H       0.56931   0.14137   0.38861   0.11889
H          H       0.57670   0.85699   0.25321   0.12120
H          H       0.43261   0.63290   0.65369   0.10897
H          H       0.55119   0.64564   0.90929   0.11328
H          H       0.44820   0.85492   0.90270   0.11252
H          H       0.44923   0.14660   0.08652   0.11348
H          H       0.54930   0.35598   0.08279   0.11262
H          H       0.92475   0.85461   0.88424   0.12051
H          H       0.06889   0.63753   0.91371   0.11789
H          H       0.07279   0.35640   0.15970   0.12100
H          H       0.92398   0.13501   0.73138   0.11941
H          H       0.05320   0.14629   0.42875   0.11290
H          H       0.95039   0.34531   0.32103   0.12196
H          H       0.94830   0.64752   0.57910   0.11303
H          H       0.04543   0.85905   0.61615   0.11306
H          H       0.40449   0.38698   0.47464   0.12505
H          H       0.59630   0.12211   0.52449   0.12093
H          H       0.56794   0.85961   0.61451   0.11779
H          H       0.40589   0.61350   0.51105   0.12516
H          H       0.58207   0.63140   0.79432   0.12377
H          H       0.41712   0.86835   0.77972   0.12518
H          H       0.41823   0.13281   0.20365   0.12374
H          H       0.58033   0.36931   0.20951   0.12503
H          H       0.89617   0.87062   0.02786   0.12359
H          H       0.09428   0.61602   0.04680   0.12154
H          H       0.10099   0.37408   0.02979   0.12025
H          H       0.93318   0.13424   0.09319   0.11693
H          H       0.08489   0.13499   0.30325   0.12570
H          H       0.92161   0.36584   0.26555   0.11906
H          H       0.91685   0.63552   0.70323   0.12515
H          H       0.07485   0.87668   0.73013   0.12478
H          H       0.41872   0.42437   0.91598   0.12544
H          H       0.58786   0.08610   0.87904   0.11949
H          H       0.55421   0.93011   0.10596   0.12434
H          H       0.41992   0.57624   0.07258   0.12497
H          H       0.58193   0.59493   0.38402   0.12915
H          H       0.41726   0.90513   0.36789   0.13020
H          H       0.41837   0.09595   0.61566   0.12926
H          H       0.58049   0.40567   0.61715   0.12945
H          H       0.90135   0.90605   0.39282   0.12416
H          H       0.08170   0.57905   0.39402   0.12099
H          H       0.09563   0.40841   0.66550   0.12188
H          H       0.92102   0.07586   0.60725   0.11875
H          H       0.08659   0.09839   0.89332   0.12831
H          H       0.95490   0.42043   0.85761   0.11371
H          H       0.94319   0.60245   0.35682   0.10899
H          H       0.07161   0.91214   0.13702   0.13055
H          H       0.44710   0.41110   0.10138   0.11462
H          H       0.55562   0.07055   0.89227   0.12341
H          H       0.56016   0.90081   0.90457   0.09676
H          H       0.44834   0.58951   0.89052   0.11459
H          H       0.55407   0.59777   0.14716   0.10773
H          H       0.44474   0.90121   0.13179   0.10813
H          H       0.44591   0.09998   0.85464   0.10776
H          H       0.55287   0.40275   0.85348   0.10867
H          H       0.93179   0.92472   0.42642   0.13126
H          H       0.04763   0.56784   0.40791   0.12815
H          H       0.06588   0.42786   0.64412   0.12195
H          H       0.95517   0.06502   0.59248   0.12859
H          H       0.05908   0.10077   0.65195   0.11052
H          H       0.94878   0.39118   0.65765   0.10222
H          H       0.92393   0.63087   0.25865   0.11918
H          H       0.04301   0.90982   0.35803   0.11138
H          H       0.41882   0.39027   0.02457   0.10523
H          H       0.56159   0.09991   0.09419   0.09636
H          H       0.58649   0.91474   0.12209   0.11968
H          H       0.42013   0.61035   0.96406   0.10533
H          H       0.57386   0.62643   0.22920   0.11980
H          H       0.42463   0.87310   0.22142   0.11903
H          H       0.42578   0.12801   0.76236   0.11871
H          H       0.57245   0.37411   0.77015   0.11875
H          H       0.92883   0.89413   0.60621   0.10086
H          H       0.05755   0.59612   0.61077   0.09471
H          H       0.06774   0.39793   0.44644   0.09852
H          H       0.94508   0.09330   0.39265   0.09541
H          H       0.07762   0.12993   0.74574   0.11777
H          H       0.92365   0.40323   0.90221   0.12582
H          H       0.91577   0.59887   0.11544   0.13122
H          H       0.06422   0.88134   0.30935   0.11440
H          H       0.51952   0.59579   0.98498   0.05883
H          H       0.47979   0.90270   0.98235   0.05854
H          H       0.48087   0.09833   0.00751   0.05873
H          H       0.51781   0.40444   0.01248   0.05900
H          H       0.02290   0.09886   0.49615   0.06049
H          H       0.98118   0.42814   0.13932   0.06017
H          H       0.97960   0.60055   0.51120   0.05957
H          H       0.01036   0.90081   0.53498   0.05252
H          H       0.34777   0.72963   0.74445   0.05936
H          H       0.65097   0.77100   0.77675   0.05964
H          H       0.67995   0.23296   0.88664   0.05813
H          H       0.35056   0.27161   0.22628   0.05943
H          H       0.85097   0.22715   0.26498   0.05838
H          H       0.18151   0.26809   0.62578   0.05989
H          H       0.15007   0.73217   0.74579   0.05951
H          H       0.84534   0.76380   0.69742   0.05542
C          C       0.26902   0.77413   0.53693  -0.15687
C          C       0.73763   0.74087   0.63634  -0.14195
C          C       0.71914   0.26519   0.69076  -0.11557
C          C       0.26458   0.24128   0.39774  -0.12851
C          C       0.73515   0.22500   0.46127  -0.14670
C          C       0.28487   0.27353   0.71581  -0.11833
C          C       0.28112   0.73617   0.24836  -0.12957
C          C       0.71833   0.77224   0.30289  -0.12627
C          C       0.76512   0.25892   0.11235  -0.12896
C          C       0.22008   0.23523   0.82607  -0.11622
C          C       0.22981   0.77492   0.95882  -0.15673
C          C       0.77950   0.72991   0.19770  -0.11155
C          C       0.21674   0.73702   0.24222  -0.13001
C          C       0.76991   0.77324  -0.00185  -0.13239
C          C       0.78486   0.22808   0.77811  -0.11932
C          C       0.23573   0.27623   0.04470  -0.14636
C          C       0.29071   0.76933   0.71686  -0.10225
C          C       0.71411   0.74146   0.79663  -0.10383
C          C       0.69854   0.26738   0.49228  -0.15329
C          C       0.28761   0.24144   0.23040  -0.10894
C          C       0.71467   0.22734   0.26214  -0.11337
C          C       0.30812   0.27329   0.55237  -0.13339
C          C       0.30496   0.73340   0.40679  -0.12196
C          C       0.69450   0.77238   0.45906  -0.12611
C          C       0.78878   0.25870   0.27468  -0.10967
C          C       0.19987   0.23308   0.02596  -0.15045
C          C       0.20798   0.77079   0.77848  -0.10283
C          C       0.79974   0.72587   0.00098  -0.13818
C          C       0.19286   0.73492   0.08332  -0.12172
C          C       0.79145   0.77005   0.81522  -0.12882
C          C       0.80863   0.22829   0.93638  -0.13366
C          C       0.21567   0.27389   0.24570  -0.11324
C          C       0.36718   0.77680   0.41069   0.02422
C          C       0.63485   0.72493   0.44835   0.02101
C          C       0.63142   0.28297   0.59192  -0.00703
C          C       0.36585   0.22474   0.55616   0.02285
C          C       0.62626   0.23548   0.72495   0.02118
C          C       0.37612   0.27111   0.70592   0.01393
C          C       0.37438   0.72964   0.27316   0.01750
C          C       0.62510   0.77122   0.29694   0.01400
C          C       0.86795   0.27447   0.93880   0.02468
C          C       0.13417   0.21703   0.92504  -0.00609
C          C       0.13116   0.77925   0.08301   0.02340
C          C       0.86628   0.71650   0.05775   0.01901
C          C       0.12382   0.73209   0.21894   0.01580
C          C       0.86936   0.76415   0.19248   0.02660
C          C       0.87818   0.22786   0.79685   0.01548
C          C       0.12819   0.26441   0.79060   0.02014
C          C       0.38618   0.77345   0.62545  -0.16356
C          C       0.61542   0.72765   0.65727  -0.16521
C          C       0.61356   0.27829   0.36879  -0.14448
C          C       0.38515   0.22722   0.34554  -0.16371
C          C       0.60603   0.23335   0.52081  -0.18682
C          C       0.39760   0.27049   0.51934  -0.17873
C          C       0.39578   0.72917   0.46407  -0.18049
C          C       0.60344   0.77089   0.48173  -0.18044
C          C       0.88727   0.27250   0.15233  -0.16277
C          C       0.11632   0.22137   0.14656  -0.14201
C          C       0.11213   0.77592   0.86849  -0.16311
C          C       0.88558   0.72118   0.85091  -0.16038
C          C       0.10233   0.73168   0.02927  -0.17995
C          C       0.89094   0.76638   0.00791  -0.18328
C          C       0.89877   0.22849  -0.00271  -0.19060
C          C       0.10817   0.26620  -0.00552  -0.18497
C          C       0.44346   0.72789   0.84208  -0.12674
C          C       0.55605   0.77151   0.85026  -0.12706
C          C       0.55739   0.23082   0.15652  -0.13276
C          C       0.44390   0.27158   0.14238  -0.12608
C          C       0.57320   0.26829   0.89749  -0.14829
C          C       0.42740   0.23371   0.89021  -0.14129
C          C       0.42673   0.76554   0.09318  -0.14546
C          C       0.57325   0.73447   0.10892  -0.14149
C          C       0.94676   0.22930   0.35343  -0.12680
C          C       0.06030   0.26878   0.35849  -0.13062
C          C       0.05473   0.73022   0.65684  -0.12654
C          C       0.94031   0.77023   0.65104  -0.12721
C          C       0.07097   0.76786   0.40271  -0.14401
C          C       0.92515   0.73221   0.39142  -0.14712
C          C       0.92973   0.26603   0.61752  -0.14057
C          C       0.07564   0.23091   0.61490  -0.14991
C          C       0.46680   0.72846   0.00508  -0.14656
C          C       0.53268   0.77097   0.00947  -0.14739
C          C       0.53404   0.23036   0.99239  -0.14595
C          C       0.46724   0.27125   0.98363  -0.14563
C          C       0.54946   0.26796   0.73653  -0.12685
C          C       0.45105   0.23359   0.72987  -0.12863
C          C       0.45030   0.76589   0.25741  -0.12840
C          C       0.54950   0.73397   0.26760  -0.13075
C          C       0.97002   0.22930   0.51694  -0.14801
C          C       0.03705   0.26944   0.52034  -0.14558
C          C       0.03133   0.73031   0.49519  -0.14859
C          C       0.96379   0.77078   0.49236  -0.14329
C          C       0.04722   0.76784   0.24092  -0.13045
C          C       0.94885   0.73296   0.23283  -0.13084
C          C       0.95357   0.26623   0.77859  -0.12939
C          C       0.05201   0.23152   0.77455  -0.12499
C          C       0.48316   0.29980   0.50831  -0.12883
C          C       0.51718   0.20121   0.51236  -0.12663
C          C       0.51574   0.79953   0.48472  -0.12877
C          C       0.48370   0.70026   0.48366  -0.13178
C          C       0.52103   0.71677   0.74157  -0.14634
C          C       0.47848   0.78294   0.73781  -0.14445
C          C       0.47972   0.21731   0.25455  -0.14889
C          C       0.52098   0.28428   0.25786  -0.14554
C          C       0.98029   0.79947   0.01591  -0.12842
C          C       0.01530   0.70146   0.01711  -0.12878
C          C       0.02059   0.29852  -0.00132  -0.12798
C          C       0.98579   0.19989   0.99194  -0.12995
C          C       0.02341   0.21573   0.24938  -0.14601
C          C       0.98311   0.28302   0.25533  -0.14745
C          C       0.97768   0.71718   0.76001  -0.14706
C          C       0.01811   0.78429   0.76126  -0.14530
C          C       0.48287   0.32345   0.34708  -0.14271
C          C       0.51705   0.17753   0.35049  -0.14384
C          C       0.51534   0.82325   0.64561  -0.14414
C          C       0.48397   0.67658   0.64415  -0.14195
C          C       0.52139   0.69343   0.90264  -0.12749
C          C       0.47796   0.80636   0.89865  -0.12769
C          C       0.47945   0.19394   0.09349  -0.12639
C          C       0.52088   0.30764   0.09727  -0.12589
C          C       0.97978   0.82308   0.85544  -0.14933
C          C       0.01550   0.67778   0.85496  -0.14133
C          C       0.02089   0.32231   0.15845  -0.14729
C          C       0.98556   0.17623   0.15394  -0.14134
C          C       0.02344   0.19236   0.40891  -0.12837
C          C       0.98359   0.30630   0.41848  -0.13276
C          C       0.97773   0.69386   0.59863  -0.12688
C          C       0.01763   0.80763   0.59922  -0.12600
C          C       0.51832   0.35482   0.71947  -0.18020
C          C       0.48078   0.14635   0.72128  -0.18123
C          C       0.47929   0.85441   0.26993  -0.18100
C          C       0.51983   0.64568   0.27509  -0.18110
C          C       0.47601   0.63537   0.09929  -0.16479
C          C       0.52344   0.86418   0.10820  -0.16237
C          C       0.52487   0.13636   0.88784  -0.16189
C          C       0.47471   0.36511   0.89422  -0.16565
C          C       0.01383   0.85668   0.23487  -0.18002
C          C       0.97953   0.64737   0.22069  -0.17790
C          C       0.98466   0.35469   0.77312  -0.18721
C          C       0.02207   0.14600   0.78612  -0.18039
C          C       0.97887   0.13353   0.60901  -0.16641
C          C       0.02966   0.36343   0.63222  -0.14427
C          C       0.02296   0.63570   0.39736  -0.16671
C          C       0.96885   0.86222   0.39255  -0.15946
C          C       0.51774   0.37655   0.53454   0.01843
C          C       0.48111   0.12488   0.53221   0.01560
C          C       0.47983   0.87599   0.45775   0.01683
C          C       0.51932   0.62405   0.46138   0.01920
C          C       0.47272   0.61573   0.30572   0.02810
C          C       0.52688   0.88331   0.32099   0.02326
C          C       0.52817   0.11734   0.67424   0.02232
C          C       0.47131   0.38480   0.68791   0.02748
C          C       0.01136   0.87791   0.04516   0.02416
C          C       0.97931   0.62582   0.03304   0.01267
C          C       0.98586   0.37475   0.97842   0.02062
C          C       0.02266   0.12439   0.97205   0.01368
C          C       0.97645   0.11403   0.81856   0.02226
C          C       0.03339   0.38141   0.85549  -0.00552
C          C       0.02575   0.61638   0.18600   0.02182
C          C       0.96378   0.88112   0.18116   0.01342
C          C       0.47464   0.45891   0.96590  -0.09603
C          C       0.52039   0.04122   0.96787  -0.10117
C          C       0.51968   0.95969   0.02169  -0.10072
C          C       0.47540   0.54201   0.02967  -0.09552
C          C       0.51364   0.55427   0.32075  -0.12385
C          C       0.48304   0.94520   0.31847  -0.12338
C          C       0.48368   0.05591   0.66945  -0.12381
C          C       0.51257   0.44613   0.67774  -0.12409
C          C       0.97657   0.94750   0.21799  -0.15091
C          C       0.00821   0.53697   0.52142  -0.10922
C          C       0.01531   0.44735   0.74425  -0.15505
C          C       0.99372   0.03567   0.47050  -0.10714
C          C       0.02450   0.05476   0.81489  -0.12774
C          C       0.97542   0.46372   0.51043  -0.11450
C          C       0.97769   0.55769   0.18692  -0.13108
C          C       0.01780   0.95708   0.46340  -0.12866
C          C       0.46965   0.48039   0.78485  -0.15609
C          C       0.52483   0.01985   0.78380  -0.15570
C          C       0.52441   0.98103   0.20606  -0.15702
C          C       0.47000   0.52076   0.21166  -0.15706
C          C       0.50977   0.53113   0.48354  -0.12964
C          C       0.48565   0.96879   0.47974  -0.13022
C          C       0.48602   0.03236   0.50773  -0.12957
C          C       0.50913   0.46942   0.51592  -0.12823
C          C       0.98165   0.96850   0.03328  -0.11205
C          C       0.00771   0.51344   0.35906  -0.12757
C          C       0.01328   0.46795   0.94131  -0.11393
C          C       0.99270   0.01206   0.63005  -0.13405
C          C       0.02405   0.03079   0.96984  -0.12544
C          C       0.97331   0.48434   0.70766  -0.14708
C          C       0.97695   0.53406   0.02726  -0.12022
C          C       0.02212   0.97931   0.28807  -0.13438
C          C       0.63540   0.20843   0.84713   0.09837
C          C       0.36920   0.29963   0.81015   0.08168
C          C       0.36595   0.70157   0.16732   0.08340
C          C       0.63251   0.79955   0.19262   0.08367
C          C       0.35635   0.80534   0.36738   0.10053
C          C       0.64779   0.69721   0.41408   0.10207
C          C       0.64034   0.31226   0.63790   0.10377
C          C       0.35262   0.19713   0.59096   0.09999
C          C       0.13219   0.70395   0.32190   0.08249
C          C       0.85813   0.79143   0.29060   0.08822
C          C       0.87308   0.19893   0.68576   0.09846
C          C       0.13663   0.29166   0.66753   0.09979
C          C       0.85479   0.30208   0.89918   0.09832
C          C       0.14367   0.18792   0.88049   0.10135
C          C       0.14214   0.80778   0.12574   0.10140
C          C       0.85629   0.68769   0.09325   0.08008
C          C       0.65365   0.19613   0.62324  -0.39700
C          C       0.36318   0.31800   0.55475  -0.40745
C          C       0.35854   0.68361   0.42080  -0.41025
C          C       0.63893   0.81790   0.44785  -0.41012
C          C       0.33973   0.81472   0.61634  -0.39236
C          C       0.66543   0.68999   0.66481  -0.39145
C          C       0.65548   0.32405   0.38734  -0.40063
C          C       0.33491   0.18992   0.34022  -0.39202
C          C       0.13936   0.68594   0.06726  -0.40750
C          C       0.84972   0.80865   0.03570  -0.40847
C          C       0.86108   0.18166   0.92364  -0.40164
C          C       0.15465   0.30452   0.89267  -0.39711
C          C       0.83712   0.30948   0.14735  -0.39186
C          C       0.15878   0.17626   0.13423  -0.39911
C          C       0.15898   0.81685   0.87769  -0.39397
C          C       0.84687   0.67534   0.80995  -0.41456
C          C       0.61203   0.18943   0.92163  -0.42016
C          C       0.39280   0.31331   0.96891  -0.41514
C          C       0.38896   0.68674   0.01482  -0.41422
C          C       0.60908   0.81327   0.03345  -0.41664
C          C       0.37984   0.82468   0.30342  -0.42008
C          C       0.62581   0.67594   0.35396  -0.42106
C          C       0.61548   0.32959   0.70764  -0.41815
C          C       0.37432   0.17565   0.65059  -0.42036
C          C       0.10914   0.68922   0.47498  -0.41623
C          C       0.87971   0.80780   0.45145  -0.41746
C          C       0.89924   0.18594   0.57707  -0.42151
C          C       0.11282   0.30995   0.58759  -0.42020
C          C       0.87662   0.32345   0.84153  -0.42012
C          C       0.11920   0.17013   0.80441  -0.41814
C          C       0.11874   0.82729   0.18761  -0.41822
C          C       0.87906   0.66965   0.20910  -0.41285
C          C       0.44369   0.39773   0.65721   0.08478
C          C       0.55672   0.10646   0.63477   0.10198
C          C       0.55542   0.89427   0.36372   0.10071
C          C       0.44504   0.60286   0.33416   0.08331
C          C       0.54724   0.61558   0.57035   0.08374
C          C       0.45181   0.88452   0.56048   0.08365
C          C       0.45292   0.11665   0.42630   0.08355
C          C       0.54558   0.38524   0.42856   0.08539
C          C       0.93432   0.88965   0.14482   0.09505
C          C       0.05345   0.60342   0.15216   0.09965
C          C       0.06231   0.39145   0.90461   0.10164
C          C       0.94905   0.10042   0.85198   0.10059
C          C       0.05096   0.11716   0.07964   0.08524
C          C       0.95828   0.38267   0.09611   0.10011
C          C       0.95097   0.61830   0.92633   0.08349
C          C       0.03863   0.88921   0.94742   0.08810
C          C       0.42356   0.37706   0.52927  -0.41104
C          C       0.57614   0.12993   0.57269  -0.42159
C          C       0.57483   0.87091   0.43047  -0.41989
C          C       0.42497   0.62351   0.45984  -0.40914
C          C       0.56221   0.63853   0.72536  -0.41450
C          C       0.43717   0.86156   0.71581  -0.41585
C          C       0.43823   0.13974   0.27136  -0.41589
C          C       0.56024   0.36244   0.27135  -0.41575
C          C       0.91708   0.86468   0.07280  -0.41857
C          C       0.07478   0.62534   0.09610  -0.41898
C          C       0.08052   0.36723   0.97648  -0.41793
C          C       0.92735   0.12180   0.91175  -0.41967
C          C       0.06437   0.14064   0.24052  -0.41719
C          C       0.94027   0.35845   0.16934  -0.41823
C          C       0.93722   0.64163   0.76686  -0.41538
C          C       0.05582   0.86768   0.79891  -0.41439
C          C       0.43162   0.40662   0.94153  -0.40830
C          C       0.56607   0.08992   0.88563  -0.39223
C          C       0.56472   0.91080   0.11361  -0.39283
C          C       0.43289   0.59397   0.04857  -0.40696
C          C       0.56515   0.60791   0.31776  -0.40808
C          C       0.43376   0.89170   0.30528  -0.40969
C          C       0.43490   0.10942   0.67964  -0.40796
C          C       0.56372   0.39268   0.68240  -0.41082
C          C       0.92341   0.90443   0.40236  -0.39934
C          C       0.06061   0.58567   0.40132  -0.38926
C          C       0.07354   0.40720   0.65513  -0.39870
C          C       0.94206   0.08272   0.60090  -0.39012
C          C       0.06945   0.11091   0.82746  -0.41120
C          C       0.94541   0.40049   0.87074  -0.39656
C          C       0.93259   0.61196   0.17948  -0.41147
C          C       0.05514   0.89887   0.20403  -0.40921
C          C       0.30977   0.74915   0.64860   0.05510
C          C       0.69169   0.75694   0.70496   0.05560
C          C       0.69594   0.24874   0.27003   0.05090
C          C       0.31026   0.25725   0.30934   0.06303
C          C       0.81128   0.24333   0.18570   0.06345
C          C       0.19728   0.25211   0.24419   0.05156
C          C       0.18847   0.75092   0.84333   0.05499
C          C       0.80705   0.74628   0.81253   0.06551
C          C       0.26254   0.75638   0.31827   0.07515
C          C       0.74033   0.75609   0.38790   0.05388
C          C       0.73864   0.24421   0.67808   0.06592
C          C       0.26239   0.25738   0.64250   0.04963
C          C       0.76237   0.24349   0.86326   0.04702
C          C       0.23917   0.25666   0.83149   0.06411
C          C       0.23587   0.75680   0.17464   0.07771
C          C       0.76375   0.75358   0.20185   0.06078
C          C       0.33381   0.74507   0.81864   0.04639
C          C       0.66668   0.75779   0.86090   0.04973
C          C       0.67642   0.24907   0.03944   0.06796
C          C       0.33485   0.25806   0.14675   0.04466
C          C       0.83621   0.24150   0.34547   0.04917
C          C       0.17814   0.25169   0.47540   0.06558
C          C       0.16439   0.74733   0.67240   0.04760
C          C       0.83206   0.74693   0.64374   0.07252
C          C       0.40152   0.74985   0.65809   0.06834
C          C       0.59864   0.75038   0.67901   0.06499
C          C       0.59941   0.25384   0.33002   0.05977
C          C       0.40204   0.24988   0.32139   0.06702
C          C       0.90378   0.24974   0.18631   0.07096
C          C       0.10188   0.24561   0.18492   0.05987
C          C       0.09664   0.75237   0.83620   0.06473
C          C       0.89907   0.74593   0.82194   0.06779
C          C       0.36023   0.75475   0.22843   0.09588
C          C       0.64071   0.74692   0.26298   0.09510
C          C       0.63868   0.26125   0.77428   0.10256
C          C       0.36033   0.24686   0.74208   0.09396
C          C       0.86259   0.25218   0.75294   0.09515
C          C       0.14096   0.23886   0.74249   0.10118
C          C       0.13809   0.75717   0.26403   0.09701
C          C       0.85793   0.73771   0.24225   0.09879
C          C       0.47234   0.74876   0.20361   0.07939
C          C       0.52732   0.75085   0.20870   0.08091
C          C       0.52793   0.25022   0.79171   0.07389
C          C       0.47294   0.25099   0.78660   0.08197
C          C       0.97556   0.24915   0.71939   0.08442
C          C       0.03066   0.24954   0.71918   0.07442
C          C       0.02544   0.75040   0.29688   0.07867
C          C       0.97026   0.75083   0.29339   0.08046
C          C       0.42318   0.74758   0.86825   0.05534
C          C       0.57668   0.75223   0.88324   0.05639
C          C       0.57746   0.25076   0.12360   0.05989
C          C       0.42372   0.25172   0.11421   0.05390
C          C       0.92609   0.24840   0.39014   0.05121
C          C       0.08008   0.24856   0.39039   0.05957
C          C       0.07484   0.75006   0.62768   0.05631
C          C       0.92081   0.74973   0.61765   0.05565
C          C       0.49981   0.74981   0.37402   0.02793
C          C       0.50045   0.25055   0.62147   0.02960
C          C       0.00311   0.24945   0.88647   0.02918
C          C       0.99793   0.75067   0.12803   0.02951
C          C       0.50067   0.32744   0.12323   0.05398
C          C       0.49921   0.17378   0.12415   0.05534
C          C       0.49754   0.82678   0.87005   0.05586
C          C       0.50174   0.67308   0.87143   0.05468
C          C       0.99732   0.82723   0.63031   0.05676
C          C       0.99774   0.67390   0.62831   0.05526
C          C       0.00331   0.32651   0.38344   0.05828
C          C       0.00341   0.17236   0.37997   0.05475
C          C       0.50082   0.27817   0.45407   0.08021
C          C       0.49990   0.22307   0.45401   0.07900
C          C       0.49873   0.77741   0.54088   0.07800
C          C       0.50082   0.72232   0.54178   0.08072
C          C       0.99816   0.77808   0.95953   0.07783
C          C       0.99773   0.72313   0.96032   0.08153
C          C       0.00293   0.27692   0.05548   0.07768
C          C       0.00328   0.22170   0.05057   0.08083
C          C       0.49277   0.39107   0.49753   0.09409
C          C       0.50614   0.11052   0.49018   0.09753
C          C       0.50492   0.89026   0.50214   0.09636
C          C       0.49432   0.60949   0.49733   0.09447
C          C       0.98482   0.88928  -0.00599   0.10082
C          C       0.00374   0.61043  -0.00130   0.09661
C          C       0.01117   0.38788   0.03348   0.10125
C          C       0.99853   0.10853   0.00574   0.09617
C          C       0.49800   0.34912   0.91577   0.06701
C          C       0.50143   0.15197   0.91670   0.06749
C          C       0.49989   0.84863   0.07733   0.06638
C          C       0.49934   0.65132   0.07812   0.06778
C          C       0.99358   0.84883   0.42343   0.06693
C          C       0.00002   0.65220   0.42036   0.06639
C          C       0.00570   0.34863   0.58798   0.06395
C          C       0.00147   0.15055   0.58696   0.06714
C          C       0.48791   0.48731   0.57346   0.07464
C          C       0.50647   0.01367   0.56854   0.07499
C          C       0.50626   0.98732   0.42021   0.07762
C          C       0.48816   0.51361   0.42537   0.07447
C          C       0.00441   0.98538   0.06387   0.05815
C          C       0.99206   0.51125   0.11049   0.04942
C          C       0.99247   0.48762   0.92566   0.06404
C          C       0.00764   0.00899   0.88180   0.05256
C          C       0.49618   0.44092   0.91213   0.05857
C          C       0.50003   0.06038   0.90821   0.05506
C          C       0.49924   0.94062   0.08113   0.05425
C          C       0.49730   0.55967   0.08434   0.05831
C          C       0.99490   0.94051   0.42991   0.06622
C          C       0.99329   0.55985   0.43379   0.06156
C          C       0.99666   0.44485   0.52161   0.05418
C          C       0.00923   0.05786   0.56664   0.05621
C          C       0.50302   0.58296   0.91030   0.04571
C          C       0.49525   0.91670   0.90936   0.04918
C          C       0.49627   0.08424   0.08111   0.04793
C          C       0.50155   0.41749   0.08580   0.04562
C          C       0.00989   0.08296   0.41120   0.04799
C          C       0.99736   0.42521   0.29358   0.06360
C          C       0.99280   0.58474   0.59327   0.04639
C          C       0.99425   0.91482   0.59133   0.08085
N          N       0.33840   0.75917   0.04772  -0.26494
N          N       0.66323   0.74383   0.09193  -0.26694
N          N       0.65694   0.26605  -0.00350  -0.24418
N          N       0.33804   0.24385   0.91633  -0.26123
N          N       0.84034   0.25553   0.57559  -0.26294
N          N       0.15908   0.23429   0.52126  -0.24244
N          N       0.16007   0.76145   0.44362  -0.26617
N          N       0.83726   0.73148   0.42998  -0.26744
N          N       0.48938   0.58811   0.67932  -0.26010
N          N       0.50935   0.91215   0.68173  -0.26561
N          N       0.51045   0.08866   0.31051  -0.26521
N          N       0.48791   0.41251   0.31553  -0.25988
N          N       0.99582   0.08609   0.17893  -0.26721
N          N       0.01506   0.40632   0.25503  -0.24032
N          N       0.00686   0.58798   0.82544  -0.26450
N          N       0.97883   0.91000   0.80508  -0.27190

