data_crystal

_audit_creation_method 'AiiDA-DDEC plugin'

_cell_length_a        50.23848
_cell_length_b        46.43564
_cell_length_c         8.14434

_cell_angle_alpha     89.46634
_cell_angle_beta     74.62727
_cell_angle_gamma     89.87602

_symmetry_space_group_name_Hall 'P 1'
_symmetry_space_group_name_H-M  'P 1'

loop_
_symmetry_equiv_pos_as_xyz
 'x,y,z'

loop_
_atom_site_label
_atom_site_type_symbol
_atom_site_fract_x
_atom_site_fract_y
_atom_site_fract_z
_atom_site_charge
Ni         Ni      0.50041   0.50167   0.23796   0.41492
Ni         Ni     -0.00062   0.00210   0.26153   0.41502
Ni         Ni      0.50064   0.49973   0.74542   0.41234
Ni         Ni      0.00060   0.00046   0.76341   0.41487
H          H       0.47601   0.61065   0.20567   0.12724
H          H       0.52654   0.61017   0.26022   0.12598
H          H       0.97441   0.11080   0.22539   0.12656
H          H       0.02473   0.11080   0.28326   0.12698
H          H       0.52460   0.39279   0.27064   0.12759
H          H       0.47356   0.39331   0.22501   0.12683
H          H       0.02539   0.89339   0.28406   0.12607
H          H       0.97436   0.89333   0.23843   0.12679
H          H       0.41140   0.52965   0.57742   0.12538
H          H       0.59123   0.52775   0.89977   0.12538
H          H       0.91101   0.02954   0.59811   0.12494
H          H       0.09077   0.02938   0.92047   0.12535
H          H       0.59056   0.46967   0.90469   0.12374
H          H       0.41094   0.47152   0.58099   0.12427
H          H       0.09089   0.97124   0.92012   0.12479
H          H       0.91114   0.97141   0.59887   0.12406
H          H       0.54249   0.60078   0.98135   0.09760
H          H       0.46097   0.60167   0.49072   0.09779
H          H       0.04108   0.10139   0.00731   0.09737
H          H       0.96071   0.10141   0.51151   0.09849
H          H       0.45795   0.39787   0.50601   0.09936
H          H       0.54186   0.39664   0.99465   0.09936
H          H       0.95890   0.89813   0.52300   0.09953
H          H       0.04335   0.89846   0.00876   0.09942
H          H       0.57808   0.63677   0.98177   0.10671
H          H       0.42611   0.63862   0.48834   0.10637
H          H       0.07619   0.13767   0.01266   0.10543
H          H       0.92576   0.13754   0.49660   0.10587
H          H       0.42133   0.36239   0.51464   0.10741
H          H       0.57795   0.36040   0.98718   0.10713
H          H       0.92281   0.86222   0.52975   0.10612
H          H       0.07986   0.86270   0.00038   0.10685
H          H       0.63660   0.58869   0.10615   0.12441
H          H       0.36616   0.59184   0.37833   0.12438
H          H       0.13509   0.08905   0.13070   0.12444
H          H       0.86386   0.08895   0.39701   0.12458
H          H       0.36403   0.41303   0.38004   0.12442
H          H       0.63411   0.40967   0.12347   0.12350
H          H       0.86461   0.91172   0.40140   0.12410
H          H       0.13521   0.91385   0.12976   0.12393
H          H       0.59961   0.55325   0.10487   0.10568
H          H       0.40255   0.55532   0.37489   0.10628
H          H       0.09796   0.05367   0.13256   0.10570
H          H       0.90127   0.05375   0.39420   0.10564
H          H       0.40022   0.44945   0.38097   0.10688
H          H       0.59901   0.44707   0.11272   0.10692
H          H       0.90053   0.94857   0.40020   0.10715
H          H       0.09877   0.95021   0.13047   0.10562
H          H       0.61478   0.65674   0.50914   0.06378
H          H       0.38704   0.65959   0.96668   0.06460
H          H       0.11464   0.15677   0.53398   0.06483
H          H       0.88237   0.15600   0.98244   0.06549
H          H       0.38842   0.34381   0.98319   0.06424
H          H       0.60706   0.34093   0.52982   0.06389
H          H       0.88872   0.84360  -0.00164   0.06310
H          H       0.11167   0.84323   0.52590   0.06484
H          H       0.63039   0.70311   0.56826   0.10408
H          H       0.37135   0.70654   0.90728   0.10363
H          H       0.13123   0.20266   0.59711   0.10337
H          H       0.86488   0.20144   0.91400   0.10378
H          H       0.37455   0.29564   0.93886   0.10468
H          H       0.62075   0.29172   0.57420   0.10559
H          H       0.87460   0.79591   0.94716   0.10532
H          H       0.12656   0.79510   0.57208   0.10514
H          H       0.66611   0.74109   0.52211   0.09924
H          H       0.33561   0.74447   0.95497   0.09758
H          H       0.16733   0.24022   0.54961   0.09817
H          H       0.82796   0.23816   0.95766   0.09697
H          H       0.33999   0.25638   0.99507   0.10447
H          H       0.65540   0.25253   0.51758   0.10669
H          H       0.83951   0.75715   0.99476   0.10440
H          H       0.16184   0.75660   0.51616   0.10428
H          H       0.72106   0.68834   0.14647   0.12614
H          H       0.28203   0.69184   0.34368   0.12519
H          H       0.21990   0.18887   0.15481   0.12608
H          H       0.77754   0.18727   0.36862   0.12685
H          H       0.28178   0.31188   0.33392   0.12738
H          H       0.71429   0.30979   0.19131   0.12717
H          H       0.78192   0.81154   0.34548   0.12644
H          H       0.21832   0.81314   0.16764   0.12629
H          H       0.68412   0.65100   0.18595   0.11955
H          H       0.31909   0.65460   0.30313   0.11892
H          H       0.18255   0.15196   0.19654   0.11868
H          H       0.81564   0.15126   0.33099   0.11704
H          H       0.31758   0.35046   0.28623   0.12203
H          H       0.67868   0.34854   0.24169   0.12247
H          H       0.81814   0.84969   0.30483   0.12204
H          H       0.18189   0.85114   0.21719   0.12180
H          H       0.67173   0.76435   0.26706   0.07733
H          H       0.33045   0.76925   0.20331   0.07830
H          H       0.17128   0.26576   0.30213   0.07758
H          H       0.82449   0.26314   0.20897   0.07782
H          H       0.33318   0.23519   0.25993   0.07780
H          H       0.66242   0.23209   0.25910   0.07729
H          H       0.83253   0.73575   0.25849   0.07716
H          H       0.16850   0.73455   0.26219   0.07854
H          H       0.69092   0.77883   0.06975   0.07450
H          H       0.31215   0.78237   0.40492   0.07367
H          H       0.18927   0.27821   0.09703   0.07243
H          H       0.80642   0.27600   0.41134   0.07171
H          H       0.31343   0.21493   0.43569   0.07942
H          H       0.68191   0.21014   0.09338   0.08303
H          H       0.81250   0.71716   0.44043   0.07802
H          H       0.18765   0.71708   0.07543   0.07809
H          H       0.69489   0.82520   0.18739   0.10810
H          H       0.30476   0.82874   0.29299   0.10905
H          H       0.19557   0.32542   0.19441   0.10740
H          H       0.80262   0.32325   0.31145   0.10523
H          H       0.31124   0.17375   0.25597   0.11056
H          H       0.68483   0.17160   0.29611   0.11106
H          H       0.81004   0.67421   0.27352   0.11020
H          H       0.19483   0.67456   0.23685   0.11023
H          H       0.68649   0.81234   0.39688   0.09661
H          H       0.31249   0.81689   0.08297   0.09768
H          H       0.18947   0.31467   0.40684   0.09884
H          H       0.80352   0.31246   0.10577   0.10145
H          H       0.32660   0.19312   0.06888   0.08570
H          H       0.66818   0.19284   0.47083   0.08339
H          H       0.82572   0.69194   0.08102   0.08698
H          H       0.18003   0.69115   0.43246   0.08762
H          H       0.63795   0.80244   0.38982   0.07002
H          H       0.36205   0.80932   0.07922   0.06890
H          H       0.13955   0.30560   0.42614   0.06918
H          H       0.85389   0.30176   0.04221   0.06857
H          H       0.37015   0.19878   0.16041   0.07235
H          H       0.62556   0.19515   0.36536   0.07251
H          H       0.86910   0.69888   0.17381   0.07295
H          H       0.13449   0.69496   0.36108   0.07152
H          H       0.64551   0.81296   0.17513   0.07528
H          H       0.35509   0.81921   0.29358   0.07416
H          H       0.14496   0.31387   0.20952   0.07367
H          H       0.85406   0.30903   0.25243   0.07290
H          H       0.35527   0.18010   0.35075   0.07591
H          H       0.64184   0.17433   0.18841   0.07751
H          H       0.85386   0.68169   0.36867   0.07536
H          H       0.14886   0.67912   0.16250   0.07480
H          H       0.65256   0.86428   0.79410   0.12192
H          H       0.38401   0.85964   0.61171   0.11419
H          H       0.13421   0.34724   0.03902   0.11531
H          H       0.86679   0.34351   0.41820   0.11394
H          H       0.34544   0.14600   0.54988   0.12144
H          H       0.62527   0.14563   0.90955   0.11303
H          H       0.85022   0.64468   0.55341   0.12111
H          H       0.15590   0.64601   0.96946   0.12161
H          H       0.65661   0.86337   0.25071   0.12227
H          H       0.37518   0.86121   0.10124   0.11363
H          H       0.15862   0.36476   0.25957   0.12280
H          H       0.87168   0.35204   0.06325   0.11348
H          H       0.35053   0.13552   0.18528   0.12163
H          H       0.64597   0.13267   0.38291   0.12215
H          H       0.88420   0.64716   0.16388   0.11371
H          H       0.12293   0.64210   0.37245   0.11379
H          H       0.64963   0.85313   0.46744   0.12064
H          H       0.34105   0.86906   0.22196   0.12241
H          H       0.15355   0.35679   0.47830   0.12220
H          H       0.84061   0.36079   0.21772   0.12134
H          H       0.36474   0.15424   0.99186   0.11506
H          H       0.62980   0.15358   0.56230   0.11430
H          H       0.84932   0.63563   0.21507   0.12124
H          H       0.15857   0.63343   0.30897   0.12147
H          H       0.47656   0.60863   0.70974   0.12700
H          H       0.52723   0.60808   0.76060   0.12687
H          H       0.97485   0.10908   0.73824   0.12670
H          H       0.02568   0.10911   0.78718   0.12614
H          H       0.52469   0.39063   0.78050   0.12675
H          H       0.47422   0.39123   0.72581   0.12666
H          H       0.02629   0.89176   0.79020   0.12608
H          H       0.97546   0.89162   0.74029   0.12673
H          H       0.41021   0.53171   0.08131   0.12389
H          H       0.58997   0.52976   0.40371   0.12373
H          H       0.90953   0.03106   0.09891   0.12455
H          H       0.08842   0.03097   0.43132   0.12417
H          H       0.58940   0.47159   0.40658   0.12589
H          H       0.40934   0.47357   0.08822   0.12487
H          H       0.08881   0.97284   0.42832   0.12425
H          H       0.90936   0.97293   0.10353   0.12543
H          H       0.54248   0.60292   0.48123   0.09876
H          H       0.45936   0.60400   0.98607   0.09823
H          H       0.04098   0.10440   0.50375   0.09928
H          H       0.95704   0.10433   0.01051   0.09898
H          H       0.45833   0.40088   0.00382   0.09774
H          H       0.53910   0.40065   0.49622   0.09855
H          H       0.95859   0.90075   0.01852   0.09789
H          H       0.04093   0.90007   0.50537   0.09906
H          H       0.57874   0.63827   0.48156   0.10701
H          H       0.42371   0.64053   0.99077   0.10689
H          H       0.07744   0.13978   0.50030   0.10697
H          H       0.92028   0.13955   0.01413   0.10742
H          H       0.42295   0.36469   0.00325   0.10543
H          H       0.57337   0.36350   0.50688   0.10597
H          H       0.92349   0.86406   0.02068   0.10620
H          H       0.07661   0.86390   0.50470   0.10562
H          H       0.63692   0.58771   0.60855   0.12438
H          H       0.36642   0.59052   0.86719   0.12372
H          H       0.13571   0.09032   0.63369   0.12460
H          H       0.86523   0.09011   0.87405   0.12334
H          H       0.36441   0.41345   0.88649   0.12447
H          H       0.63518   0.41071   0.60717   0.12396
H          H       0.86493   0.91268   0.89988   0.12507
H          H       0.13614   0.91301   0.61498   0.12426
H          H       0.60056   0.55152   0.60796   0.10617
H          H       0.40205   0.55336   0.87007   0.10581
H          H       0.09979   0.05387   0.62781   0.10694
H          H       0.90096   0.05368   0.88921   0.10734
H          H       0.40174   0.44884   0.87982   0.10540
H          H       0.59840   0.44680   0.61245   0.10535
H          H       0.90177   0.94850   0.89549   0.10556
H          H       0.09895   0.94876   0.62236   0.10505
H          H       0.61348   0.65568   0.01153   0.06395
H          H       0.39115   0.65946   0.46245   0.06419
H          H       0.11071   0.15800   0.03943   0.06383
H          H       0.89168   0.15901   0.46889   0.06300
H          H       0.38396   0.34557   0.48472   0.06484
H          H       0.61635   0.34391   0.02119   0.06601
H          H       0.88627   0.84441   0.49993   0.06402
H          H       0.11712   0.84484   0.02331   0.06519
H          H       0.62769   0.70314   0.06638   0.10456
H          H       0.37693   0.70773   0.41106   0.10456
H          H       0.12482   0.20604   0.09073   0.10582
H          H       0.87705   0.20720   0.41889   0.10539
H          H       0.36816   0.29866   0.43024   0.10423
H          H       0.63313   0.29706   0.08234   0.10436
H          H       0.87101   0.79782   0.44025   0.10346
H          H       0.13321   0.79767   0.07710   0.10407
H          H       0.66239   0.74225   0.01749   0.10345
H          H       0.34214   0.74676   0.46264   0.10445
H          H       0.15968   0.24505   0.03877   0.10553
H          H       0.84184   0.24586   0.47191   0.10686
H          H       0.33237   0.26064   0.48398   0.09779
H          H       0.66960   0.25978   0.03106   0.09632
H          H       0.83553   0.75971   0.48436   0.09880
H          H       0.16937   0.76007   0.02381   0.09785
H          H       0.71977   0.68880   0.65937   0.12557
H          H       0.28502   0.69178   0.81832   0.12650
H          H       0.21765   0.18995   0.69575   0.12653
H          H       0.78355   0.18822   0.79993   0.12810
H          H       0.27954   0.31285   0.87261   0.12636
H          H       0.72010   0.31146   0.62464   0.12681
H          H       0.78075   0.81128   0.86799   0.12586
H          H       0.22153   0.81347   0.63312   0.12584
H          H       0.68381   0.65043   0.70008   0.12121
H          H       0.32096   0.65335   0.77319   0.12113
H          H       0.18164   0.15160   0.73967   0.12213
H          H       0.81983   0.15017   0.75413   0.12263
H          H       0.31666   0.35015   0.82611   0.11901
H          H       0.68239   0.34807   0.66947   0.11728
H          H       0.81747   0.84871   0.83040   0.11936
H          H       0.18405   0.85040   0.67965   0.11934
H          H       0.66930   0.76450   0.75193   0.07776
H          H       0.33533   0.76877   0.72191   0.07791
H          H       0.16635   0.26622   0.77619   0.07750
H          H       0.83470   0.26598   0.73386   0.07821
H          H       0.32822   0.23637   0.73699   0.07877
H          H       0.67266   0.23480   0.78462   0.07828
H          H       0.83004   0.73486   0.73709   0.07806
H          H       0.17395   0.73615   0.77020   0.07795
H          H       0.68899   0.78286   0.56852   0.07660
H          H       0.31619   0.78687   0.90633   0.07810
H          H       0.18581   0.28582   0.59664   0.07984
H          H       0.81522   0.28848   0.89685   0.08415
H          H       0.30985   0.22348   0.94034   0.07264
H          H       0.69038   0.22209   0.58111   0.07231
H          H       0.81103   0.72164   0.93838   0.07332
H          H       0.19226   0.72279   0.56935   0.07353
H          H       0.69160   0.82617   0.72927   0.11125
H          H       0.31113   0.82967   0.74040   0.11009
H          H       0.18871   0.32768   0.77066   0.11182
H          H       0.81268   0.32647   0.69130   0.11019
H          H       0.30479   0.17635   0.84115   0.10736
H          H       0.69514   0.17488   0.68025   0.10617
H          H       0.80592   0.67473   0.83209   0.10972
H          H       0.19903   0.67636   0.68217   0.10941
H          H       0.67753   0.80881   0.92513   0.08897
H          H       0.32602   0.81245   0.54680   0.08757
H          H       0.17373   0.30887   0.96054   0.08692
H          H       0.82878   0.30471   0.51787   0.08415
H          H       0.30974   0.18741   0.63010   0.09857
H          H       0.69299   0.18549   0.88795   0.10050
H          H       0.81367   0.68627   0.62014   0.09638
H          H       0.19164   0.68836   0.89183   0.09667
H          H       0.63280   0.80113   0.85033   0.07244
H          H       0.37090   0.80721   0.62420   0.07291
H          H       0.12983   0.30256   0.87193   0.07282
H          H       0.87189   0.30261   0.61777   0.07307
H          H       0.35970   0.19724   0.60139   0.07011
H          H       0.64272   0.19567   0.94229   0.06844
H          H       0.86276   0.69573   0.61779   0.07008
H          H       0.14211   0.69644   0.89749   0.07018
H          H       0.64634   0.81748   0.65073   0.07528
H          H       0.35649   0.82341   0.82152   0.07547
H          H       0.14439   0.32107   0.68046   0.07630
H          H       0.85625   0.32401   0.79341   0.07770
H          H       0.35569   0.18847   0.81623   0.07511
H          H       0.64380   0.18920   0.72930   0.07279
H          H       0.85578   0.68666   0.83438   0.07468
H          H       0.14880   0.68684   0.68274   0.07571
H          H       0.62256   0.85362   0.36506   0.11494
H          H       0.34735   0.85942   0.00569   0.12094
H          H       0.12502   0.35672   0.38844   0.11407
H          H       0.84003   0.35389   0.00571   0.12455
H          H       0.38542   0.14706   0.13341   0.11404
H          H       0.61105   0.14331   0.41572   0.11394
H          H       0.86411   0.65283   0.01730   0.11551
H          H       0.14423   0.64932   0.50951   0.11594
H          H       0.63890   0.84787   0.99558   0.11681
H          H       0.34865   0.86949   0.67277   0.12088
H          H       0.11443   0.35443   0.89253   0.11457
H          H       0.88635   0.35442   0.55901   0.11457
H          H       0.37515   0.14615   0.62863   0.11381
H          H       0.65704   0.13729   0.76056   0.12077
H          H       0.87751   0.64462   0.65400   0.11389
H          H       0.12837   0.64473   0.87097   0.11413
H          H       0.61760   0.85296   0.85544   0.11486
H          H       0.36280   0.85327   0.47288   0.11605
H          H       0.14929   0.36589   0.84663   0.12238
H          H       0.85132   0.36493   0.59646   0.12226
H          H       0.34230   0.13757   0.76617   0.12164
H          H       0.65612   0.14329   0.97591   0.12344
H          H       0.84340   0.63585   0.77217   0.12194
H          H       0.16259   0.63667   0.75260   0.12134
C          C       0.48036   0.56273   0.21013   0.17319
C          C       0.52154   0.56232   0.25903   0.17042
C          C       0.97895   0.06293   0.23244   0.17484
C          C       0.01999   0.06293   0.28371   0.17392
C          C       0.52036   0.44074   0.26507   0.17414
C          C       0.47879   0.44115   0.22249   0.17391
C          C       0.02043   0.94128   0.28308   0.17388
C          C       0.97887   0.94124   0.24018   0.17288
C          C       0.48841   0.59221   0.21953  -0.18857
C          C       0.51394   0.59196   0.24719  -0.18498
C          C       0.98685   0.09248   0.24070  -0.18557
C          C       0.01227   0.09248   0.27008  -0.18922
C          C       0.51221   0.41126   0.25743  -0.19029
C          C       0.48637   0.41152   0.23467  -0.18762
C          C       0.01273   0.91172   0.27242  -0.18936
C          C       0.98688   0.91169   0.24974  -0.18645
C          C       0.44891   0.52591   0.16397   0.17007
C          C       0.55191   0.52484   0.31364   0.17188
C          C       0.94802   0.02571   0.18442   0.17193
C          C       0.05054   0.02573   0.33967   0.17205
C          C       0.55146   0.47752   0.31577   0.17171
C          C       0.44819   0.47857   0.16997   0.16935
C          C       0.05083   0.97839   0.33772   0.17110
C          C       0.94789   0.97834   0.18832   0.17189
C          C       0.42462   0.51711   0.11604  -0.17909
C          C       0.57556   0.51549   0.36780  -0.17844
C          C       0.92400   0.01663   0.13435  -0.18059
C          C       0.07427   0.01660   0.39372  -0.17912
C          C       0.57528   0.48623   0.36916  -0.18090
C          C       0.42418   0.48785   0.11969  -0.17825
C          C       0.07446   0.98735   0.39223  -0.18079
C          C       0.92390   0.98736   0.13687  -0.17933
C          C       0.45523   0.55474   0.18127  -0.06146
C          C       0.54637   0.55381   0.29097  -0.06217
C          C       0.95395   0.05463   0.20284  -0.06449
C          C       0.04479   0.05465   0.31702  -0.06481
C          C       0.54533   0.44876   0.29568  -0.06378
C          C       0.45376   0.44965   0.19356  -0.06174
C          C       0.04530   0.94956   0.31425  -0.06285
C          C       0.95379   0.94947   0.21078  -0.06374
C          C       0.56814   0.57530   0.29418   0.07923
C          C       0.43379   0.57678   0.17897   0.08036
C          C       0.06653   0.07624   0.31940   0.08168
C          C       0.93210   0.07624   0.20091   0.07983
C          C       0.43217   0.42790   0.19210   0.08026
C          C       0.56628   0.42656   0.30364   0.08290
C          C       0.93242   0.92747   0.20880   0.08131
C          C       0.06692   0.92781   0.31749   0.08226
C          C       0.56301   0.59990   0.39729  -0.12852
C          C       0.43903   0.60143   0.07358  -0.12846
C          C       0.06150   0.10112   0.42012  -0.12990
C          C       0.93672   0.10106   0.09694  -0.13138
C          C       0.43779   0.40338   0.08855  -0.12846
C          C       0.55979   0.40240   0.41220  -0.12979
C          C       0.93813   0.90302   0.10464  -0.12908
C          C       0.06145   0.90291   0.42062  -0.12956
C          C       0.58367   0.61970   0.39847  -0.17620
C          C       0.41871   0.62190   0.07531  -0.17541
C          C       0.08228   0.12092   0.41952  -0.17675
C          C       0.91578   0.12077   0.09786  -0.17670
C          C       0.41762   0.38306   0.08757  -0.17266
C          C       0.57933   0.38157   0.41894  -0.17269
C          C       0.91810   0.88244   0.10492  -0.17338
C          C       0.08180   0.88263   0.42113  -0.17216
C          C       0.61076   0.61565   0.29533   0.19481
C          C       0.39186   0.61844   0.18345   0.19419
C          C       0.10938   0.11654   0.31728   0.19625
C          C       0.88893   0.11637   0.20398   0.19661
C          C       0.39048   0.38647   0.19121   0.19650
C          C       0.60664   0.38414   0.31622   0.19497
C          C       0.89104   0.88557   0.21003   0.19521
C          C       0.10891   0.88645   0.31755   0.19631
C          C       0.61593   0.59136   0.18971  -0.15340
C          C       0.38660   0.59407   0.29101  -0.15174
C          C       0.11443   0.09198   0.21385  -0.15323
C          C       0.88430   0.09190   0.31086  -0.15346
C          C       0.38477   0.41073   0.29691  -0.15314
C          C       0.61322   0.40806   0.20571  -0.15170
C          C       0.88527   0.90971   0.31661  -0.15188
C          C       0.11448   0.91115   0.21279  -0.15309
C          C       0.59514   0.57163   0.18950  -0.11982
C          C       0.40705   0.57371   0.28850  -0.12366
C          C       0.09355   0.07228   0.21536  -0.12116
C          C       0.90534   0.07231   0.30892  -0.12109
C          C       0.40513   0.43103   0.29700  -0.12416
C          C       0.59350   0.42888   0.20002  -0.12410
C          C       0.90547   0.93024   0.31557  -0.12427
C          C       0.09399   0.93141   0.21342  -0.12142
C          C       0.63231   0.65403   0.39620   0.07488
C          C       0.37015   0.65731   0.08372   0.07313
C          C       0.13164   0.15448   0.41774   0.07419
C          C       0.86587   0.15389   0.10161   0.07380
C          C       0.37038   0.34680   0.09259   0.07107
C          C       0.62552   0.34395   0.42298   0.07325
C          C       0.87081   0.84627   0.10894   0.07237
C          C       0.12953   0.84657   0.41546   0.07130
C          C       0.65471   0.67476   0.37731   0.05843
C          C       0.34782   0.67826   0.10497   0.05761
C          C       0.15424   0.17508   0.39671   0.05745
C          C       0.84298   0.17418   0.12255   0.05738
C          C       0.34855   0.32539   0.11267   0.06188
C          C       0.64722   0.32246   0.40695   0.06157
C          C       0.84884   0.82509   0.12639   0.06010
C          C       0.15168   0.82544   0.39458   0.05967
C          C       0.65003   0.70014   0.47361  -0.12919
C          C       0.35206   0.70359   0.00545  -0.12850
C          C       0.15037   0.19994   0.49766  -0.12883
C          C       0.84604   0.19865   0.01610  -0.12957
C          C       0.35443   0.29892   0.02812  -0.13063
C          C       0.64110   0.29550   0.48819  -0.13256
C          C       0.85449   0.79907   0.03680  -0.13229
C          C       0.14648   0.79882   0.48108  -0.13019
C          C       0.67011   0.72152   0.44759  -0.13552
C          C       0.33193   0.72497   0.03224  -0.13559
C          C       0.17067   0.22112   0.47072  -0.13413
C          C       0.82526   0.21930   0.04038  -0.13192
C          C       0.33503   0.27679   0.06035  -0.13516
C          C       0.66054   0.27339   0.45561  -0.13490
C          C       0.83481   0.77726   0.06385  -0.13375
C          C       0.16632   0.77711   0.44915  -0.13615
C          C       0.69591   0.71746   0.32977   0.04507
C          C       0.30649   0.72092   0.15380   0.04494
C          C       0.19588   0.21740   0.34685   0.04569
C          C       0.80037   0.21533   0.16711   0.04579
C          C       0.30874   0.28113   0.17248   0.04227
C          C       0.68701   0.27818   0.34600   0.04040
C          C       0.80853   0.78153   0.17599   0.04171
C          C       0.19238   0.78201   0.33499   0.04326
C          C       0.70117   0.69140   0.23898  -0.09806
C          C       0.30166   0.69490   0.24824  -0.09901
C          C       0.20040   0.19178   0.25133  -0.09972
C          C       0.79673   0.19018   0.26921  -0.10387
C          C       0.30221   0.30839   0.24842  -0.09448
C          C       0.69375   0.30595   0.27465  -0.09153
C          C       0.80228   0.80828   0.25842  -0.09428
C          C       0.19816   0.80935   0.25608  -0.09338
C          C       0.68064   0.67064   0.26037  -0.09226
C          C       0.32226   0.67420   0.22624  -0.09233
C          C       0.17965   0.17124   0.27408  -0.09456
C          C       0.81796   0.17022   0.24907  -0.09254
C          C       0.32202   0.32991   0.22167  -0.09329
C          C       0.67403   0.32753   0.30251  -0.09428
C          C       0.82236   0.82949   0.23627  -0.09200
C          C       0.17796   0.83049   0.28325  -0.09349
C          C       0.71758   0.73942   0.29286   0.16235
C          C       0.28456   0.74263   0.19182   0.16659
C          C       0.21769   0.23927   0.30865   0.16548
C          C       0.77822   0.23681   0.20320   0.16979
C          C       0.28759   0.25884   0.21803   0.15603
C          C       0.70816   0.25603   0.29817   0.15273
C          C       0.78718   0.75936   0.21538   0.15998
C          C       0.21414   0.76034   0.28841   0.15572
C          C       0.73992   0.78251   0.18239   0.43787
C          C       0.26151   0.78469   0.30886   0.43852
C          C       0.23992   0.28228   0.19648   0.43867
C          C       0.75599   0.27962   0.31259   0.43574
C          C       0.26562   0.21559   0.33014   0.44194
C          C       0.73015   0.21289   0.18817   0.43881
C          C       0.76496   0.71625   0.32674   0.43903
C          C       0.23726   0.71848   0.16730   0.43993
C          C       0.75940   0.76244   0.22340  -0.21891
C          C       0.24210   0.76428   0.27231  -0.21640
C          C       0.25962   0.26199   0.23240  -0.21823
C          C       0.73624   0.25936   0.27936  -0.22004
C          C       0.24563   0.23582   0.29602  -0.21248
C          C       0.75024   0.23327   0.21700  -0.21407
C          C       0.74533   0.73622   0.28604  -0.21386
C          C       0.25669   0.73877   0.20460  -0.21595
C          C       0.68854   0.77917   0.20785  -0.05711
C          C       0.31332   0.78317   0.26818  -0.05867
C          C       0.18822   0.27968   0.23325  -0.05739
C          C       0.80757   0.27720   0.27486  -0.05704
C          C       0.31704   0.21876   0.29796  -0.05851
C          C       0.67848   0.21550   0.22867  -0.06033
C          C       0.81622   0.71964   0.30174  -0.06023
C          C       0.18545   0.71943   0.21272  -0.05846
C          C       0.68149   0.80984   0.27429  -0.19469
C          C       0.31848   0.81433   0.20271  -0.19394
C          C       0.18269   0.31107   0.29089  -0.19317
C          C       0.81310   0.30845   0.21059  -0.19312
C          C       0.32645   0.19063   0.20344  -0.18878
C          C       0.66913   0.18840   0.33702  -0.18856
C          C       0.82541   0.69069   0.21639  -0.18967
C          C       0.17885   0.68994   0.29983  -0.19057
C          C       0.65101   0.81710   0.29506  -0.10546
C          C       0.34870   0.82319   0.17598  -0.10677
C          C       0.15212   0.31906   0.32244  -0.10714
C          C       0.84407   0.31524   0.15223  -0.10876
C          C       0.35522   0.18171   0.21584  -0.10052
C          C       0.64091   0.17798   0.32318  -0.09940
C          C       0.85405   0.68214   0.23311  -0.10105
C          C       0.15019   0.67941   0.29533  -0.09893
C          C       0.64448   0.84848   0.34740  -0.37969
C          C       0.35345   0.85492   0.12337  -0.37771
C          C       0.14694   0.35104   0.36455  -0.38038
C          C       0.84952   0.34719   0.10706  -0.37946
C          C       0.36457   0.15310   0.12705  -0.37608
C          C       0.63136   0.15040   0.42644  -0.37530
C          C       0.86350   0.65288   0.15322  -0.37530
C          C       0.14354   0.64946   0.37573  -0.37591
C          C       0.48063   0.56068   0.71680   0.17275
C          C       0.52203   0.56024   0.76254   0.17345
C          C       0.97971   0.06118   0.74064   0.17246
C          C       0.02115   0.06122   0.78537   0.17324
C          C       0.52055   0.43858   0.77478   0.17288
C          C       0.47941   0.43907   0.72528   0.17256
C          C       0.02136   0.93961   0.78721   0.17229
C          C       0.97998   0.93953   0.74127   0.17350
C          C       0.48881   0.59015   0.72457  -0.19024
C          C       0.51450   0.58987   0.74981  -0.18627
C          C       0.98744   0.09074   0.75088  -0.18952
C          C       0.01318   0.09077   0.77523  -0.18499
C          C       0.51238   0.40912   0.76636  -0.18654
C          C       0.48687   0.40942   0.73839  -0.18786
C          C       0.01363   0.91005   0.77765  -0.18644
C          C       0.98793   0.90999   0.75239  -0.18855
C          C       0.44949   0.52389   0.66698   0.17065
C          C       0.55256   0.52279   0.81603   0.16995
C          C       0.94909   0.02406   0.68800   0.17056
C          C       0.05215   0.02409   0.83639   0.16805
C          C       0.55196   0.47542   0.82076   0.16975
C          C       0.44912   0.47655   0.66954   0.17250
C          C       0.05219   0.97676   0.83708   0.17080
C          C       0.94918   0.97671   0.68855   0.16886
C          C       0.42562   0.51509   0.61439  -0.17956
C          C       0.57651   0.51350   0.86699  -0.18034
C          C       0.92534   0.01508   0.63471  -0.17937
C          C       0.07623   0.01500   0.88670  -0.17785
C          C       0.57615   0.48424   0.86972  -0.17913
C          C       0.42540   0.48583   0.61598  -0.18048
C          C       0.07627   0.98574   0.88686  -0.18057
C          C       0.92540   0.98582   0.63512  -0.17886
C          C       0.45560   0.55269   0.68656  -0.06220
C          C       0.54697   0.55172   0.79279  -0.06140
C          C       0.95486   0.05290   0.70916  -0.06253
C          C       0.04622   0.05296   0.81463  -0.06152
C          C       0.54569   0.44656   0.80349  -0.06220
C          C       0.45464   0.44760   0.69264  -0.06298
C          C       0.04637   0.94792   0.81638  -0.06150
C          C       0.95499   0.94778   0.71051  -0.06208
C          C       0.56860   0.57341   0.79493   0.07981
C          C       0.43439   0.57480   0.68105   0.08199
C          C       0.06758   0.07486   0.81803   0.08253
C          C       0.93365   0.07480   0.70082   0.08276
C          C       0.43275   0.42614   0.69147   0.07899
C          C       0.56724   0.42461   0.80528   0.07860
C          C       0.93331   0.92609   0.70867   0.08069
C          C       0.06824   0.92629   0.81658   0.07934
C          C       0.56306   0.59807   0.89736  -0.12926
C          C       0.44040   0.59941   0.57578  -0.12794
C          C       0.06170   0.09914   0.92330  -0.13048
C          C       0.93990   0.09911   0.59328  -0.12890
C          C       0.43755   0.40121   0.59103  -0.12815
C          C       0.56221   0.39966   0.90813  -0.12932
C          C       0.93845   0.90119   0.60798  -0.13017
C          C       0.06358   0.90151   0.92076  -0.12973
C          C       0.58337   0.61825   0.89855  -0.17393
C          C       0.42051   0.62013   0.57342  -0.17359
C          C       0.08172   0.11949   0.92702  -0.17178
C          C       0.91999   0.11940   0.58420  -0.17364
C          C       0.41670   0.38136   0.59463  -0.17817
C          C       0.58278   0.37938   0.90534  -0.17755
C          C       0.91785   0.88109   0.61035  -0.17492
C          C       0.08437   0.88151   0.91706  -0.17557
C          C       0.61056   0.61455   0.79626   0.19312
C          C       0.39331   0.61699   0.67699   0.19506
C          C       0.10895   0.11631   0.82447   0.19440
C          C       0.89256   0.11615   0.68387   0.19548
C          C       0.38980   0.38575   0.69954   0.19822
C          C       0.60967   0.38342   0.79899   0.19804
C          C       0.89079   0.88516   0.71388   0.19603
C          C       0.11105   0.88564   0.80810   0.19642
C          C       0.61616   0.59021   0.69118  -0.15161
C          C       0.38722   0.59260   0.78407  -0.15113
C          C       0.11490   0.09236   0.71636  -0.15243
C          C       0.88625   0.09218   0.79412  -0.15076
C          C       0.38493   0.41045   0.80173  -0.15386
C          C       0.61472   0.40806   0.69358  -0.15382
C          C       0.88557   0.90984   0.81633  -0.15453
C          C       0.11577   0.91023   0.70239  -0.15338
C          C       0.59569   0.57006   0.69106  -0.12323
C          C       0.40726   0.57192   0.78542  -0.12402
C          C       0.09469   0.07205   0.71354  -0.12487
C          C       0.90632   0.07191   0.80207  -0.12481
C          C       0.40589   0.43018   0.79740  -0.12035
C          C       0.59404   0.42817   0.69707  -0.12069
C          C       0.90630   0.92982   0.81339  -0.11976
C          C       0.09487   0.93012   0.70696  -0.12088
C          C       0.63124   0.65328   0.89980   0.07297
C          C       0.37331   0.65677   0.57381   0.07134
C          C       0.12884   0.15536   0.93019   0.07142
C          C       0.87306   0.15556   0.57407   0.07338
C          C       0.36737   0.34758   0.60322   0.07493
C          C       0.63246   0.34551   0.89999   0.07521
C          C       0.86909   0.84664   0.61524   0.07335
C          C       0.13359   0.84713   0.90422   0.07318
C          C       0.65321   0.67449   0.88253   0.05923
C          C       0.35147   0.67822   0.59248   0.05974
C          C       0.15074   0.17657   0.91418   0.06214
C          C       0.85093   0.17645   0.58758   0.06163
C          C       0.34500   0.32666   0.62780   0.05797
C          C       0.65507   0.32479   0.87614   0.05675
C          C       0.84684   0.82562   0.63523   0.05823
C          C       0.15606   0.82630   0.87908   0.05894
C          C       0.64763   0.70030   0.97443  -0.12934
C          C       0.35700   0.70451   0.50282  -0.13137
C          C       0.14496   0.20279   0.00154  -0.13216
C          C       0.85669   0.20329   0.50452  -0.13234
C          C       0.34904   0.30147   0.52978  -0.13027
C          C       0.65185   0.29993   0.97953  -0.13018
C          C       0.85149   0.80050   0.53647  -0.12825
C          C       0.15228   0.80085   0.97739  -0.12964
C          C       0.66713   0.72232   0.94675  -0.13521
C          C       0.33747   0.72652   0.53238  -0.13365
C          C       0.16452   0.22474   0.97213  -0.13537
C          C       0.83694   0.22508   0.53515  -0.13406
C          C       0.32891   0.28009   0.55972  -0.13309
C          C       0.67236   0.27895   0.95096  -0.13145
C          C       0.83152   0.77899   0.56147  -0.13672
C          C       0.17259   0.77966   0.94730  -0.13519
C          C       0.69325   0.71849   0.83191   0.04315
C          C       0.31140   0.72224   0.64754   0.04219
C          C       0.19082   0.22041   0.86031   0.04255
C          C       0.81049   0.22003   0.64441   0.04070
C          C       0.30369   0.28405   0.68304   0.04575
C          C       0.69714   0.28294   0.82353   0.04603
C          C       0.80584   0.78261   0.68109   0.04616
C          C       0.19771   0.78401   0.82331   0.04620
C          C       0.69951   0.69186   0.74786  -0.09459
C          C       0.30523   0.69518   0.72958  -0.09405
C          C       0.19726   0.19335   0.78185  -0.09457
C          C       0.80409   0.19231   0.71713  -0.09319
C          C       0.29903   0.30991   0.77607  -0.10027
C          C       0.70098   0.30847   0.72455  -0.10133
C          C       0.80059   0.80842   0.77455  -0.09978
C          C       0.20210   0.81014   0.72987  -0.09952
C          C       0.67957   0.67048   0.77032  -0.09315
C          C       0.32515   0.67377   0.70472  -0.09301
C          C       0.17732   0.17200   0.80598  -0.09231
C          C       0.82415   0.17108   0.69151  -0.09396
C          C       0.31966   0.33061   0.75085  -0.09347
C          C       0.67998   0.32877   0.74872  -0.09423
C          C       0.82102   0.82928   0.75407  -0.09187
C          C       0.18130   0.83067   0.75532  -0.09462
C          C       0.71457   0.74081   0.79235   0.15887
C          C       0.28994   0.74428   0.69045   0.15679
C          C       0.21203   0.24266   0.81601   0.15679
C          C       0.78916   0.24205   0.69158   0.15259
C          C       0.28194   0.26218   0.72323   0.16737
C          C       0.71910   0.26129   0.78586   0.17009
C          C       0.78422   0.76052   0.71652   0.16508
C          C       0.21971   0.76242   0.78308   0.16616
C          C       0.73718   0.78385   0.68130   0.43936
C          C       0.26697   0.78648   0.80819   0.44069
C          C       0.23411   0.28551   0.69825   0.44126
C          C       0.76711   0.28512   0.80206   0.43823
C          C       0.25972   0.21949   0.84024   0.43742
C          C       0.74128   0.21843   0.67706   0.43572
C          C       0.76163   0.71755   0.82688   0.43803
C          C       0.24268   0.72029   0.66647   0.43789
C          C       0.75652   0.76374   0.72283  -0.21668
C          C       0.24757   0.76624   0.77027  -0.21634
C          C       0.25400   0.26555   0.73563  -0.21657
C          C       0.74709   0.26485   0.77123  -0.21398
C          C       0.23998   0.23952   0.80234  -0.21830
C          C       0.76110   0.23876   0.70886  -0.21953
C          C       0.74229   0.73762   0.78504  -0.21728
C          C       0.26207   0.74062   0.70374  -0.21677
C          C       0.68562   0.78057   0.70703  -0.05876
C          C       0.31883   0.78448   0.76870  -0.05990
C          C       0.18256   0.28249   0.73447  -0.05970
C          C       0.81872   0.28267   0.76214  -0.06327
C          C       0.31130   0.22222   0.80359  -0.05879
C          C       0.68954   0.22083   0.71716  -0.05831
C          C       0.81305   0.72056   0.80084  -0.05803
C          C       0.19097   0.72204   0.70620  -0.05771
C          C       0.67668   0.80962   0.79167  -0.19261
C          C       0.32671   0.81368   0.68037  -0.19013
C          C       0.17351   0.31094   0.82630  -0.19108
C          C       0.82817   0.30945   0.65080  -0.18662
C          C       0.31710   0.19098   0.74394  -0.19310
C          C       0.68408   0.18951   0.78025  -0.19256
C          C       0.81929   0.68944   0.74036  -0.19304
C          C       0.18554   0.69097   0.77243  -0.19481
C          C       0.64745   0.81772   0.78397  -0.10099
C          C       0.35553   0.82323   0.68800  -0.10120
C          C       0.14462   0.31969   0.81518  -0.10023
C          C       0.85664   0.31988   0.65996  -0.10113
C          C       0.34784   0.18341   0.70572  -0.11069
C          C       0.65312   0.18257   0.83180  -0.10983
C          C       0.84975   0.68178   0.71708  -0.10813
C          C       0.15521   0.68253   0.79990  -0.10739
C          C       0.63857   0.84728   0.86126  -0.37864
C          C       0.36325   0.85300   0.60713  -0.37581
C          C       0.13506   0.34834   0.90285  -0.37762
C          C       0.86585   0.34714   0.55284  -0.37614
C          C       0.35310   0.15159   0.66007  -0.37658
C          C       0.64747   0.15050   0.87188  -0.37665
C          C       0.85565   0.65003   0.67169  -0.37845
C          C       0.15012   0.65079   0.85106  -0.37883
N          N       0.63311   0.63435   0.28358  -0.29948
N          N       0.36983   0.63774   0.19827  -0.29657
N          N       0.13179   0.13521   0.30380  -0.29778
N          N       0.86637   0.13491   0.21806  -0.29611
N          N       0.36858   0.36721   0.20216  -0.30154
N          N       0.62805   0.36446   0.31113  -0.30227
N          N       0.86918   0.86625   0.22086  -0.29962
N          N       0.13093   0.86724   0.30572  -0.30092
N          N       0.71372   0.76751   0.24086  -0.12102
N          N       0.28802   0.77064   0.24332  -0.12061
N          N       0.21370   0.26757   0.25992  -0.12205
N          N       0.78214   0.26501   0.24979  -0.11815
N          N       0.29181   0.23075   0.26831  -0.12512
N          N       0.70393   0.22798   0.25065  -0.12303
N          N       0.79118   0.73134   0.26755  -0.12123
N          N       0.21068   0.73246   0.23474  -0.12163
N          N       0.50083   0.54419   0.23517  -0.28283
N          N      -0.00056   0.04461   0.25932  -0.28390
N          N       0.49980   0.45926   0.24196  -0.28257
N          N      -0.00044   0.95959   0.26176  -0.28208
N          N       0.46415   0.50206   0.19012  -0.28904
N          N       0.53631   0.50137   0.28893  -0.28699
N          N       0.96346   0.00203   0.21055  -0.28955
N          N       0.03530   0.00208   0.31299  -0.28894
N          N       0.63260   0.63359   0.78631  -0.29853
N          N       0.37163   0.63654   0.68643  -0.29893
N          N       0.13077   0.13551   0.81718  -0.29995
N          N       0.87075   0.13517   0.68640  -0.30247
N          N       0.36747   0.36684   0.71675  -0.29758
N          N       0.63187   0.36435   0.78307  -0.29596
N          N       0.86855   0.86616   0.72837  -0.29704
N          N       0.13336   0.86665   0.79040  -0.29686
N          N       0.71077   0.76886   0.73953  -0.12266
N          N       0.29353   0.77218   0.74334  -0.12192
N          N       0.20789   0.27056   0.76278  -0.12326
N          N       0.79329   0.27001   0.74090  -0.12280
N          N       0.28591   0.23414   0.77520  -0.12088
N          N       0.71510   0.23304   0.74036  -0.11920
N          N       0.78794   0.73239   0.76827  -0.12234
N          N       0.21624   0.73444   0.73145  -0.12119
N          N       0.50112   0.54215   0.74133  -0.28171
N          N       0.00048   0.04289   0.76330  -0.28317
N          N       0.50017   0.45716   0.74890  -0.28314
N          N       0.00061   0.95791   0.76396  -0.28330
N          N       0.46471   0.50007   0.69378  -0.28742
N          N       0.53673   0.49928   0.79459  -0.28692
N          N       0.96454   0.00037   0.71377  -0.28683
N          N       0.03663   0.00045   0.81318  -0.28689
O          O       0.74219   0.80620   0.11041  -0.43904
O          O       0.25905   0.80803   0.38228  -0.43870
O          O       0.24215   0.30596   0.12472  -0.43976
O          O       0.75391   0.30330   0.38202  -0.43907
O          O       0.26400   0.19177   0.39963  -0.44510
O          O       0.73160   0.18892   0.12329  -0.44597
O          O       0.76299   0.69267   0.39950  -0.44333
O          O       0.23956   0.69539   0.09157  -0.44599
O          O       0.73963   0.80749   0.60904  -0.44196
O          O       0.26459   0.80969   0.88262  -0.44513
O          O       0.23578   0.30899   0.62488  -0.44579
O          O       0.76569   0.30904   0.86755  -0.44660
O          O       0.25767   0.19605   0.91470  -0.43945
O          O       0.74335   0.19464   0.60886  -0.43802
O          O       0.75918   0.69398   0.90001  -0.43882
O          O       0.24504   0.69700   0.59255  -0.43924

