data_crystal

_audit_creation_method 'AiiDA-DDEC plugin'

_cell_length_a        47.35131
_cell_length_b        48.20593
_cell_length_c         8.17915

_cell_angle_alpha     88.66751
_cell_angle_beta     86.83162
_cell_angle_gamma     89.89358

_symmetry_space_group_name_Hall 'P 1'
_symmetry_space_group_name_H-M  'P 1'

loop_
_symmetry_equiv_pos_as_xyz
 'x,y,z'

loop_
_atom_site_label
_atom_site_type_symbol
_atom_site_fract_x
_atom_site_fract_y
_atom_site_fract_z
_atom_site_charge
H          H       0.47310   0.60725   0.18420   0.12927
H          H       0.52546   0.60756   0.29107   0.12999
H          H       0.52706   0.39437   0.31060   0.12994
H          H       0.47467   0.39394   0.20546   0.12903
H          H       0.97406   0.10782   0.17835   0.12057
H          H       0.02584   0.10756   0.29043   0.12415
H          H       0.02624   0.89422   0.32092   0.12162
H          H       0.97435   0.89435   0.21011   0.12101
H          H       0.40407   0.52695   0.49406   0.12126
H          H       0.59627   0.52825  -0.00082   0.12061
H          H       0.59685   0.47265   0.00645   0.12035
H          H       0.40483   0.47122   0.49892   0.12064
H          H       0.90407   0.02668   0.49560   0.13119
H          H       0.09570   0.02786   0.00883   0.13360
H          H       0.09599   0.97213   0.01507   0.13242
H          H       0.90431   0.97091   0.50402   0.12966
H          H       0.54429   0.59792   0.02893   0.09595
H          H       0.45410   0.59682   0.44268   0.09534
H          H       0.45579   0.40196   0.46627   0.09596
H          H       0.54769   0.40096   0.05028   0.09574
H          H       0.04385   0.09910   0.03129   0.10026
H          H       0.95559   0.09692   0.44165   0.09974
H          H       0.95649   0.90063   0.47067   0.10116
H          H       0.04712   0.90055   0.06251   0.10117
H          H       0.57975   0.63472   0.04612   0.10717
H          H       0.41828   0.63347   0.42062   0.10743
H          H       0.42020   0.36514   0.45297   0.10771
H          H       0.58405   0.36452   0.05827   0.10751
H          H       0.07940   0.13611   0.04070   0.10925
H          H       0.92075   0.13449   0.42206   0.10815
H          H       0.92061   0.86429   0.44953   0.10834
H          H       0.08384   0.86453   0.07145   0.10796
H          H       0.63859   0.58624   0.22355   0.12303
H          H       0.36131   0.58623   0.26094   0.12251
H          H       0.36242   0.41302   0.27314   0.12344
H          H       0.63814   0.41345   0.24413   0.12390
H          H       0.13678   0.08913   0.23728   0.12247
H          H       0.86271   0.08816   0.26118   0.12231
H          H       0.86281   0.91384   0.27276   0.12256
H          H       0.13750   0.91273   0.25310   0.12341
H          H       0.60104   0.55045   0.21453   0.10622
H          H       0.39849   0.54983   0.27279   0.10616
H          H       0.39854   0.45032   0.27504   0.10715
H          H       0.60172   0.45058   0.22551   0.10641
H          H       0.10052   0.05210   0.22497   0.10139
H          H       0.89921   0.05119   0.26770   0.10249
H          H       0.89951   0.95054   0.28044   0.10186
H          H       0.10109   0.94971   0.23456   0.10129
H          H       0.62193   0.65636   0.56859   0.06707
H          H       0.38105   0.66241   0.94099   0.06272
H          H       0.38101   0.34119   0.94407   0.06764
H          H       0.60982   0.33468   0.51363   0.06217
H          H       0.11661   0.15972   0.57430   0.06867
H          H       0.88193   0.16389   0.93631   0.06467
H          H       0.88145   0.84377   0.93079   0.06786
H          H       0.10721   0.83298   0.49610   0.06120
H          H       0.63715   0.70447   0.59466   0.10402
H          H       0.36421   0.70950   0.92115   0.10110
H          H       0.36665   0.29225   0.93246   0.10228
H          H       0.62519   0.28761   0.53362   0.10330
H          H       0.13003   0.20938   0.58134   0.10438
H          H       0.86558   0.21164   0.91801   0.10178
H          H       0.86805   0.79520   0.90973   0.10330
H          H       0.12258   0.78586   0.52120   0.10377
H          H       0.67055   0.74265   0.52357   0.09696
H          H       0.32988   0.74623  -0.00333   0.09778
H          H       0.33280   0.25460   0.00672   0.09714
H          H       0.65934   0.25047   0.47039   0.10111
H          H       0.16333   0.24734   0.50497   0.09754
H          H       0.83128   0.24839   0.99557   0.09834
H          H       0.83570   0.75621   0.98088   0.09704
H          H       0.15666   0.74865   0.45855   0.10116
H          H       0.71906   0.68898   0.20043   0.12456
H          H       0.28156   0.68750   0.30302   0.12637
H          H       0.28343   0.31031   0.31256   0.12521
H          H       0.71728   0.31101   0.24502   0.12849
H          H       0.21546   0.19085   0.21962   0.12637
H          H       0.78479   0.19041   0.31536   0.12558
H          H       0.78454   0.80942   0.29353   0.12378
H          H       0.21568   0.80905   0.24420   0.12820
H          H       0.68410   0.65111   0.26421   0.11905
H          H       0.31754   0.65101   0.23429   0.11963
H          H       0.31916   0.34755   0.24799   0.11843
H          H       0.68210   0.34809   0.30554   0.12119
H          H       0.18050   0.15316   0.28724   0.11871
H          H       0.82071   0.15387   0.24600   0.11859
H          H       0.81848   0.84811   0.22991   0.11926
H          H       0.18081   0.84644   0.30552   0.12167
H          H       0.66757   0.76566   0.29462   0.07838
H          H       0.33082   0.76606   0.23364   0.08006
H          H       0.33332   0.23292   0.25176   0.07995
H          H       0.66394   0.23149   0.25095   0.07952
H          H       0.16389   0.26916   0.27125   0.07965
H          H       0.83295   0.26845   0.23445   0.07915
H          H       0.83715   0.73121   0.18995   0.07952
H          H       0.16140   0.73019   0.23529   0.07910
H          H       0.67874   0.78133   0.10492   0.07304
H          H       0.31679   0.78103   0.41573   0.07278
H          H       0.31925   0.21772   0.43745   0.07327
H          H       0.68033   0.21452   0.08086   0.07740
H          H       0.17739   0.28470   0.08543   0.07503
H          H       0.81928   0.28451   0.41395   0.07318
H          H       0.82758   0.71877   0.38922   0.06981
H          H       0.17852   0.71247   0.07114   0.07900
H          H       0.69266   0.82357   0.22745   0.10848
H          H       0.30414   0.82341   0.28175   0.10804
H          H       0.30598   0.17566   0.30980   0.10943
H          H       0.69282   0.17432   0.24519   0.11197
H          H       0.19161   0.32619   0.21322   0.10814
H          H       0.80506   0.32565   0.26738   0.10951
H          H       0.81083   0.67492   0.29248   0.10985
H          H       0.18999   0.67307   0.24456   0.11270
H          H       0.69075   0.80916   0.42526   0.09904
H          H       0.30817   0.80980   0.08601   0.09924
H          H       0.31158   0.18962   0.11203   0.09684
H          H       0.68063   0.18950   0.42792   0.09075
H          H       0.18756   0.31174   0.41061   0.09609
H          H       0.81049   0.31049   0.07658   0.09641
H          H       0.81384   0.68589   0.08769   0.10117
H          H       0.17720   0.68933   0.42304   0.08969
H          H       0.63786   0.80304   0.41156   0.06779
H          H       0.36069   0.80492   0.11405   0.06668
H          H       0.36393   0.19401   0.15494   0.06808
H          H       0.63118   0.19100   0.33338   0.06966
H          H       0.13479   0.30816   0.38448   0.06843
H          H       0.86298   0.30705   0.11805   0.06799
H          H       0.86703   0.69042   0.10494   0.06833
H          H       0.12818   0.69105   0.31793   0.06972
H          H       0.63964   0.81635   0.20980   0.07420
H          H       0.35715   0.81654   0.31573   0.07440
H          H       0.35835   0.18104   0.35629   0.07430
H          H       0.64279   0.17802   0.14282   0.07496
H          H       0.13853   0.32155   0.18314   0.07500
H          H       0.85776   0.32154   0.31212   0.07468
H          H       0.86388   0.68044   0.31259   0.07457
H          H       0.14065   0.67533   0.13667   0.07505
H          H       0.65307   0.84934   0.01740   0.12087
H          H       0.34651   0.86725   0.69053   0.12086
H          H       0.37910   0.14219   0.67323   0.11516
H          H       0.65919   0.14747   0.96147   0.12173
H          H       0.15554   0.35099   0.98892   0.12123
H          H       0.85015   0.35732   0.48326   0.11971
H          H       0.84086   0.63548   0.70165   0.12207
H          H       0.15540   0.64795   0.95084   0.12367
H          H       0.65670   0.86246   0.30663   0.12016
H          H       0.34027   0.86321   0.21662   0.11970
H          H       0.34093   0.13554   0.24937   0.12118
H          H       0.62186   0.13957   0.32353   0.11468
H          H       0.15772   0.36652   0.28619   0.12053
H          H       0.87409   0.35793   0.09772   0.11369
H          H       0.87809   0.63937   0.14357   0.11496
H          H       0.15459   0.63252   0.29821   0.12239
H          H       0.65556   0.84927   0.51042   0.12262
H          H       0.34188   0.85168   0.01278   0.12370
H          H       0.34671   0.14853   0.04642   0.12064
H          H       0.65841   0.13339   0.28043   0.12154
H          H       0.15410   0.35317   0.48938   0.11866
H          H       0.84013   0.36597   0.18661   0.11975
H          H       0.84384   0.63390   0.23768   0.12091
H          H       0.14216   0.64823   0.48173   0.11586
H          H       0.49991   0.47782   0.24795   0.27416
H          H       0.50015   0.52376   0.24525   0.27447
H          H       0.97828   0.00150   0.21456   0.27346
H          H       0.02167   0.00042   0.28785   0.27278
H          H       0.47339   0.60606   0.68295   0.12873
H          H       0.52602   0.60634   0.78590   0.13006
H          H       0.52729   0.39330   0.81873   0.12963
H          H       0.47485   0.39315   0.71281   0.13032
H          H       0.97335   0.10575   0.68544   0.12082
H          H       0.02535   0.10632   0.79395   0.12177
H          H       0.02665   0.89285   0.82767   0.12106
H          H       0.97467   0.89247   0.71698   0.12140
H          H       0.40392   0.52832   0.99152   0.11961
H          H       0.59549   0.52876   0.50213   0.12305
H          H       0.59580   0.47315   0.50638   0.12161
H          H       0.40438   0.47273   0.99399   0.12040
H          H       0.90454   0.02859   0.98551   0.12846
H          H       0.09476   0.02904   0.51094   0.13237
H          H       0.09552   0.97331   0.51596   0.12930
H          H       0.90508   0.97288   0.99235   0.13126
H          H       0.54612   0.59988   0.52480   0.09679
H          H       0.45299   0.59941   0.94763   0.09731
H          H       0.45523   0.40124   0.97337   0.09556
H          H       0.54577   0.40322   0.55361   0.09571
H          H       0.04335   0.09958   0.53311   0.10050
H          H       0.95433   0.10064   0.94586   0.10098
H          H       0.95580   0.90192   0.97392   0.10028
H          H       0.04513   0.90244   0.56334   0.09961
H          H       0.58304   0.63565   0.53231   0.10803
H          H       0.41647   0.63567   0.93716   0.10697
H          H       0.41991   0.36384   0.97491   0.10798
H          H       0.58162   0.36652   0.57368   0.10726
H          H       0.07897   0.13659   0.54361   0.10780
H          H       0.91850   0.13770   0.94081   0.10842
H          H       0.91970   0.86532   0.96645   0.10800
H          H       0.08111   0.86584   0.58376   0.10830
H          H       0.63794   0.58841   0.73526   0.12249
H          H       0.36200   0.58734   0.75586   0.12309
H          H       0.36350   0.41083   0.77609   0.12270
H          H       0.63931   0.41431   0.73672   0.12298
H          H       0.13723   0.08832   0.73611   0.12204
H          H       0.86350   0.08938   0.75691   0.12152
H          H       0.86293   0.91018   0.76562   0.12170
H          H       0.13802   0.91390   0.74129   0.12289
H          H       0.60171   0.55142   0.71707   0.10762
H          H       0.39836   0.55019   0.77570   0.10665
H          H       0.39968   0.44802   0.78803   0.10602
H          H       0.60213   0.45070   0.72613   0.10595
H          H       0.10110   0.05126   0.72600   0.10249
H          H       0.89881   0.05136   0.77445   0.10172
H          H       0.89942   0.94664   0.78774   0.10151
H          H       0.10064   0.95003   0.73181   0.10156
H          H       0.61478   0.66071   0.05998   0.06876
H          H       0.39066   0.66540   0.47982   0.06265
H          H       0.38791   0.33624   0.47003   0.06676
H          H       0.61930   0.33740   0.05136   0.06246
H          H       0.11691   0.16047   0.06512   0.06809
H          H       0.89268   0.16702   0.47619   0.06243
H          H       0.88578   0.83680   0.44728   0.06636
H          H       0.11664   0.83522   0.03605   0.06071
H          H       0.62939   0.70899   0.07183   0.10501
H          H       0.37576   0.71235   0.45241   0.10358
H          H       0.37317   0.28847   0.46175   0.10443
H          H       0.63636   0.29032   0.06830   0.10151
H          H       0.13124   0.20949   0.07046   0.10546
H          H       0.87740   0.21450   0.45014   0.10445
H          H       0.87008   0.78893   0.43903   0.10583
H          H       0.13450   0.78892   0.05602   0.10082
H          H       0.66363   0.74645   0.00512   0.09812
H          H       0.34205   0.75013   0.51215   0.10112
H          H       0.33886   0.25115   0.52990   0.09932
H          H       0.67107   0.25398   0.99189   0.09700
H          H       0.16533   0.24686   0.99594   0.09832
H          H       0.84327   0.25182   0.50902   0.09900
H          H       0.83553   0.75202   0.51362   0.09986
H          H       0.16934   0.75278   0.97806   0.09826
H          H       0.71888   0.68840   0.75195   0.12857
H          H       0.28405   0.69123   0.75220   0.12798
H          H       0.28281   0.31008   0.76984   0.12783
H          H       0.71967   0.31369   0.69439   0.12632
H          H       0.21758   0.18911   0.72060   0.12738
H          H       0.78627   0.19266   0.75426   0.12713
H          H       0.78142   0.81164   0.76164   0.12848
H          H       0.21850   0.81317   0.68963   0.12700
H          H       0.68350   0.65104   0.81379   0.12105
H          H       0.31873   0.65347   0.69483   0.12100
H          H       0.31854   0.34722   0.70872   0.12017
H          H       0.68336   0.34982   0.76340   0.11968
H          H       0.18201   0.15195   0.78749   0.11853
H          H       0.82127   0.15518   0.69664   0.12011
H          H       0.81723   0.84838   0.69323   0.11928
H          H       0.18245   0.84935   0.76257   0.11922
H          H       0.66465   0.76699   0.78186   0.07912
H          H       0.33826   0.76975   0.73511   0.07974
H          H       0.33557   0.23119   0.75727   0.07889
H          H       0.67029   0.23439   0.75619   0.07990
H          H       0.16641   0.26813   0.76283   0.07851
H          H       0.83963   0.27282   0.71951   0.07933
H          H       0.83495   0.73336   0.74876   0.07876
H          H       0.16871   0.73453   0.74194   0.08000
H          H       0.67807   0.78395   0.60048   0.07822
H          H       0.32228   0.78689   0.90510   0.07842
H          H       0.32056   0.21516   0.93776   0.07716
H          H       0.68463   0.22009   0.57281   0.07208
H          H       0.18020   0.28415   0.57900   0.07551
H          H       0.82533   0.28844   0.89835   0.07710
H          H       0.82022   0.71433   0.92024   0.07796
H          H       0.18323   0.71990   0.56025   0.07161
H          H       0.69123   0.82476   0.74014   0.10954
H          H       0.31081   0.82740   0.74625   0.10832
H          H       0.30816   0.17379   0.79988   0.10921
H          H       0.69933   0.17802   0.70744   0.11110
H          H       0.19419   0.32525   0.71312   0.10896
H          H       0.81104   0.32962   0.75491   0.10931
H          H       0.80615   0.67637   0.74722   0.11324
H          H       0.19477   0.67699   0.69138   0.10825
H          H       0.68715   0.80873   0.93351   0.09567
H          H       0.32002   0.81197   0.55938   0.09199
H          H       0.31516   0.18870   0.60503   0.09455
H          H       0.69205   0.19078   0.90334   0.09640
H          H       0.18998   0.30994   0.90844   0.09798
H          H       0.81666   0.31516   0.56221   0.09655
H          H       0.81829   0.69423   0.56853   0.08857
H          H       0.19032   0.69003   0.88835   0.09937
H          H       0.63464   0.80434   0.90358   0.06839
H          H       0.37074   0.80860   0.63143   0.07005
H          H       0.36676   0.19303   0.65919   0.06925
H          H       0.64003   0.19325   0.85171   0.06772
H          H       0.13738   0.30574   0.87780   0.06681
H          H       0.86893   0.31197   0.60065   0.06919
H          H       0.86799   0.69364   0.66405   0.07039
H          H       0.13803   0.69548   0.85693   0.06832
H          H       0.63833   0.81903   0.70518   0.07621
H          H       0.36222   0.82245   0.82444   0.07572
H          H       0.36019   0.17970   0.85901   0.07606
H          H       0.64698   0.18207   0.65096   0.07356
H          H       0.14129   0.31992   0.67839   0.07468
H          H       0.86393   0.32491   0.79887   0.07614
H          H       0.85602   0.67770   0.84995   0.07536
H          H       0.14191   0.68518   0.65287   0.07471
H          H       0.62376   0.85333   0.40700   0.11394
H          H       0.37347   0.85525   0.11751   0.11424
H          H       0.37583   0.14305   0.17085   0.11460
H          H       0.64655   0.14629   0.47309   0.11752
H          H       0.12359   0.35929   0.37723   0.11476
H          H       0.84332   0.35149   0.98999   0.12173
H          H       0.84770   0.64366   0.02816   0.12146
H          H       0.11803   0.63974   0.33243   0.11419
H          H       0.62180   0.85476   0.91106   0.11421
H          H       0.35461   0.85341   0.49510   0.11720
H          H       0.34402   0.13422   0.74663   0.12033
H          H       0.63071   0.14187   0.83406   0.11336
H          H       0.12469   0.35629   0.87854   0.11375
H          H       0.88014   0.36294   0.59897   0.11566
H          H       0.85222   0.65128   0.51197   0.11783
H          H       0.12497   0.64498   0.83523   0.11466
H          H       0.65519   0.86393   0.81666   0.12068
H          H       0.38208   0.85960   0.62839   0.11537
H          H       0.35049   0.14759   0.54487   0.11921
H          H       0.66609   0.13656   0.75846   0.12185
H          H       0.15841   0.36504   0.78700   0.12032
H          H       0.84574   0.37022   0.68370   0.12091
H          H       0.87730   0.64237   0.65782   0.11459
H          H       0.15906   0.63789   0.74448   0.12116
H          H       0.50093   0.47686   0.75248   0.27413
H          H       0.50004   0.52256   0.74782   0.27500
H          H       0.97835   0.99905   0.71838   0.27342
H          H       0.02178  -0.00010   0.79245   0.27464
C          C       0.47760   0.56113   0.19383   0.18161
C          C       0.52187   0.56141   0.28901   0.18240
C          C       0.52247   0.44048   0.30002   0.18373
C          C       0.47826   0.44012   0.20503   0.18188
C          C       0.97859   0.06093   0.19314   0.19140
C          C       0.02078   0.06073   0.29096   0.19160
C          C       0.02146   0.94107   0.30756   0.19018
C          C       0.97914   0.94119   0.21179   0.19154
C          C       0.48601   0.58940   0.21140  -0.19232
C          C       0.51292   0.58957   0.26639  -0.19113
C          C       0.51414   0.41219   0.28293  -0.19219
C          C       0.48721   0.41197   0.22854  -0.19219
C          C       0.98665   0.08988   0.20856  -0.19088
C          C       0.01303   0.08974   0.26612  -0.19369
C          C       0.01355   0.91212   0.29129  -0.19328
C          C       0.98708   0.91219   0.23492  -0.18939
C          C       0.44507   0.52314   0.11785   0.19104
C          C       0.55474   0.52365   0.37328   0.19088
C          C       0.55493   0.47837   0.37755   0.19104
C          C       0.44533   0.47780   0.12092   0.19050
C          C       0.94475   0.02457   0.11327   0.18271
C          C       0.05473   0.02438   0.38297   0.18126
C          C       0.05528   0.97735   0.38835   0.18161
C          C       0.94513   0.97754   0.12036   0.18105
C          C       0.41947   0.51458   0.04169  -0.18736
C          C       0.58028   0.51507   0.45236  -0.18918
C          C       0.58041   0.48690   0.45481  -0.18646
C          C       0.41968   0.48640   0.04328  -0.18635
C          C       0.92007   0.01510   0.03790  -0.18868
C          C       0.07956   0.01531   0.46128  -0.18828
C          C       0.07993   0.98680   0.46409  -0.18691
C          C       0.92034   0.98660   0.04166  -0.18804
C          C       0.45168   0.55141   0.13962  -0.06741
C          C       0.54789   0.55189   0.34542  -0.06768
C          C       0.54824   0.45018   0.35584  -0.06821
C          C       0.45223   0.44954   0.14824  -0.06697
C          C       0.95233   0.05242   0.13592  -0.06704
C          C       0.04688   0.05215   0.35208  -0.06619
C          C       0.04769   0.94954   0.36495  -0.06500
C          C       0.95293   0.94978   0.15205  -0.06313
C          C       0.57044   0.57272   0.36600   0.07612
C          C       0.42900   0.57228   0.11562   0.07722
C          C       0.43003   0.42831   0.12817   0.07389
C          C       0.57056   0.42913   0.38297   0.08006
C          C       0.06895   0.07334   0.37570   0.07509
C          C       0.92992   0.07350   0.11131   0.07682
C          C       0.93071   0.92865   0.13108   0.07299
C          C       0.06986   0.92831   0.39193   0.07641
C          C       0.56618   0.59705   0.45618  -0.12955
C          C       0.43315   0.59676   0.01969  -0.12933
C          C       0.43511   0.40365   0.04203  -0.12599
C          C       0.56574   0.40513   0.48209  -0.12864
C          C       0.06372   0.09742   0.46673  -0.12349
C          C       0.93442   0.09811   0.01729  -0.12303
C          C       0.93557   0.90437   0.04146  -0.12254
C          C       0.06506   0.90432   0.49123  -0.12148
C          C       0.58723   0.61705   0.46203  -0.17439
C          C       0.41236   0.61711   0.01293  -0.17148
C          C       0.41495   0.38271   0.04115  -0.17341
C          C       0.58603   0.38440   0.49283  -0.17169
C          C       0.08400   0.11811   0.47388  -0.16915
C          C       0.91399   0.11888   0.01349  -0.17057
C          C       0.91503   0.88390   0.03608  -0.17096
C          C       0.08541   0.88364   0.50197  -0.17182
C          C       0.61372   0.61346   0.37763   0.19848
C          C       0.38619   0.61376   0.10236   0.19830
C          C       0.38840   0.38572   0.12581   0.20017
C          C       0.61228   0.38683   0.40313   0.19898
C          C       0.11067   0.11539   0.39022   0.19924
C          C       0.88786   0.11578   0.10374   0.20078
C          C       0.88844   0.88701   0.12021   0.19833
C          C       0.11162   0.88601   0.41180   0.20169
C          C       0.61835   0.58883   0.29103  -0.14969
C          C       0.38144   0.58873   0.19150  -0.14534
C          C       0.38278   0.41078   0.20643  -0.15181
C          C       0.61779   0.41151   0.31186  -0.14826
C          C       0.11636   0.09094   0.30382  -0.15361
C          C       0.88271   0.09056   0.19042  -0.15030
C          C       0.88314   0.91164   0.20566  -0.15270
C          C       0.11719   0.91074   0.32116  -0.15058
C          C       0.59726   0.56893   0.28609  -0.12226
C          C       0.40230   0.56850   0.19786  -0.12282
C          C       0.40305   0.43157   0.20706  -0.12128
C          C       0.59739   0.43215   0.30170  -0.12271
C          C       0.09600   0.07035   0.29737  -0.12633
C          C       0.90321   0.06993   0.19373  -0.12781
C          C       0.90375   0.93203   0.20983  -0.12821
C          C       0.09673   0.93131   0.31088  -0.12698
C          C       0.63665   0.65377   0.46111   0.07265
C          C       0.36491   0.65686   0.03834   0.07043
C          C       0.36654   0.34407   0.05236   0.07059
C          C       0.62961   0.34162   0.44847   0.06105
C          C       0.13185   0.15692   0.46966   0.06882
C          C       0.86671   0.15899   0.03958   0.06958
C          C       0.86657   0.84615   0.03769   0.07079
C          C       0.12786   0.84020   0.44327   0.06158
C          C       0.65794   0.67540   0.42987   0.05709
C          C       0.34342   0.67787   0.07555   0.05705
C          C       0.34545   0.32235   0.08835   0.05800
C          C       0.65117   0.32039   0.42180   0.05811
C          C       0.15281   0.17878   0.43637   0.06020
C          C       0.84563   0.18029   0.07916   0.05754
C          C       0.84581   0.82409   0.06899   0.05881
C          C       0.14920   0.81877   0.41582   0.05783
C          C       0.65461   0.70127   0.50472  -0.13153
C          C       0.34650   0.70486   0.00803  -0.13210
C          C       0.34889   0.29602   0.01941  -0.13129
C          C       0.64527   0.29265   0.46852  -0.13746
C          C       0.14839   0.20544   0.49907  -0.13194
C          C       0.84833   0.20711   0.00826  -0.13212
C          C       0.85017   0.79810  -0.00281  -0.12971
C          C       0.14288   0.79092   0.45853  -0.13772
C          C       0.67336   0.72288   0.46396  -0.13579
C          C       0.32717   0.72560   0.05111  -0.13646
C          C       0.32978   0.27475   0.06141  -0.13573
C          C       0.66460   0.27160   0.43175  -0.13745
C          C       0.16717   0.22691   0.45552  -0.13691
C          C       0.82907   0.22787   0.05218  -0.13498
C          C       0.83199   0.77606   0.03801  -0.13770
C          C       0.16213   0.76981   0.42169  -0.13749
C          C       0.69664   0.71884   0.35292   0.04702
C          C       0.30355   0.71968   0.15795   0.04670
C          C       0.30596   0.27960   0.16716   0.04495
C          C       0.69091   0.27770   0.34966   0.04517
C          C       0.19159   0.22196   0.35459   0.04456
C          C       0.80590   0.22203   0.16237   0.04717
C          C       0.80820   0.77972   0.14597   0.04516
C          C       0.18869   0.77590   0.34270   0.04510
C          C       0.70090   0.69233   0.28511  -0.09608
C          C       0.29985   0.69224   0.22075  -0.09527
C          C       0.30189   0.30642   0.23103  -0.09613
C          C       0.69714   0.30586   0.30869  -0.09176
C          C       0.19663   0.19480   0.29798  -0.09347
C          C       0.80269   0.19486   0.22966  -0.09763
C          C       0.80303   0.80632   0.21098  -0.09316
C          C       0.19528   0.80407   0.30511  -0.09223
C          C       0.68159   0.67120   0.32097  -0.09989
C          C       0.31970   0.67191   0.18221  -0.09904
C          C       0.32164   0.32716   0.19488  -0.09914
C          C       0.67765   0.32664   0.34244  -0.09806
C          C       0.17730   0.17380   0.33578  -0.10140
C          C       0.82251   0.17456   0.19067  -0.09797
C          C       0.82176   0.82792   0.17526  -0.10233
C          C       0.17596   0.82496   0.33966  -0.09887
C          C       0.71718   0.74033   0.30258   0.15904
C          C       0.28210   0.74010   0.20668   0.16474
C          C       0.28450   0.25876   0.21487   0.16288
C          C       0.71240   0.25730   0.30154   0.15054
C          C       0.21276   0.24285   0.30376   0.15826
C          C       0.78436   0.24229   0.21123   0.16281
C          C       0.78783   0.75801   0.19542   0.15834
C          C       0.21013   0.75551   0.29469   0.15254
C          C       0.73636   0.78128   0.18214   0.43837
C          C       0.26109   0.77953   0.32374   0.43798
C          C       0.26337   0.21917   0.34118   0.43855
C          C       0.73423   0.21796   0.18488   0.43984
C          C       0.23387   0.28243   0.17693   0.44018
C          C       0.76319   0.28170   0.32698   0.43563
C          C       0.76843   0.71718   0.31679   0.44046
C          C       0.23179   0.71617   0.17817   0.44047
C          C       0.75871   0.76161   0.21466  -0.21598
C          C       0.23936   0.75976   0.28582  -0.21209
C          C       0.24187   0.23875   0.29430  -0.21658
C          C       0.75534   0.23779   0.22614  -0.21287
C          C       0.25539   0.26278   0.22255  -0.21497
C          C       0.74160   0.26166   0.29169  -0.21073
C          C       0.74627   0.73686   0.28316  -0.21649
C          C       0.25301   0.73585   0.22008  -0.21115
C          C       0.68322   0.77987   0.23538  -0.05403
C          C       0.31426   0.77987   0.28341  -0.05740
C          C       0.31672   0.21908   0.30467  -0.05423
C          C       0.68100   0.21722   0.21388  -0.05603
C          C       0.18051   0.28288   0.21761  -0.05415
C          C       0.81639   0.28243   0.28249  -0.05405
C          C       0.82179   0.71817   0.26084  -0.05346
C          C       0.17859   0.71573   0.20390  -0.05903
C          C       0.68055   0.80884   0.30781  -0.19922
C          C       0.31719   0.80914   0.20705  -0.19922
C          C       0.31972   0.18989   0.23526  -0.19872
C          C       0.67676   0.18855   0.29697  -0.19379
C          C       0.17831   0.31192   0.29025  -0.19537
C          C       0.81887   0.31115   0.19912  -0.19899
C          C       0.82364   0.68797   0.20555  -0.20211
C          C       0.17381   0.68759   0.29190  -0.19188
C          C       0.64952   0.81777   0.32810  -0.10205
C          C       0.34809   0.81874   0.19489  -0.10061
C          C       0.35046   0.17984   0.23245  -0.10030
C          C       0.64703   0.17728   0.27389  -0.10022
C          C       0.14771   0.32233   0.30375  -0.10201
C          C       0.84948   0.32160   0.18887  -0.10136
C          C       0.85430   0.67761   0.19443  -0.10330
C          C       0.14410   0.67636   0.26844  -0.10046
C          C       0.64610   0.84729   0.39151  -0.37886
C          C       0.35121   0.84884   0.13212  -0.37904
C          C       0.35376   0.15014   0.17163  -0.37896
C          C       0.64317   0.14753   0.34127  -0.37790
C          C       0.14556   0.35191   0.36753  -0.37658
C          C       0.85204   0.35081   0.11180  -0.37655
C          C       0.85621   0.64699   0.14845  -0.37816
C          C       0.13937   0.64767   0.34933  -0.37632
C          C       0.47770   0.55996   0.69589   0.18263
C          C       0.52207   0.56020   0.78844   0.18510
C          C       0.52311   0.43943   0.80576   0.18312
C          C       0.47887   0.43926   0.71078   0.18227
C          C       0.97862   0.05896   0.69964   0.19092
C          C       0.02103   0.05942   0.79448   0.19098
C          C       0.02154   0.93970   0.81270   0.19017
C          C       0.97918   0.93936   0.71684   0.19310
C          C       0.48624   0.58822   0.71112  -0.19109
C          C       0.51327   0.58837   0.76406  -0.19228
C          C       0.51451   0.41118   0.79025  -0.18968
C          C       0.48759   0.41108   0.73553  -0.19368
C          C       0.98628   0.08802   0.71485  -0.18885
C          C       0.01278   0.08830   0.77045  -0.19298
C          C       0.01379   0.91063   0.79768  -0.18981
C          C       0.98731   0.91043   0.74117  -0.19168
C          C       0.44513   0.52204   0.62149   0.19088
C          C       0.55527   0.52272   0.87339   0.19229
C          C       0.55572   0.47740   0.87951   0.19131
C          C       0.44569   0.47677   0.62596   0.19277
C          C       0.94464   0.02251   0.62007   0.18139
C          C       0.05530   0.02341   0.88446   0.18247
C          C       0.05544   0.97635   0.89061   0.18186
C          C       0.94485   0.97543   0.62689   0.18021
C          C       0.41961   0.51330   0.54530  -0.18609
C          C       0.58099   0.51439   0.95137  -0.18623
C          C       0.58128   0.48621   0.95500  -0.18643
C          C       0.41997   0.48511   0.54787  -0.18646
C          C       0.91971   0.01313   0.54670  -0.18689
C          C       0.08026   0.01420   0.96079  -0.19049
C          C       0.08035   0.98570   0.96435  -0.18797
C          C       0.91984   0.98461   0.55084  -0.18524
C          C       0.45176   0.55027   0.64248  -0.06640
C          C       0.54808   0.55086   0.84546  -0.06780
C          C       0.54909   0.44910   0.85934  -0.06805
C          C       0.45287   0.44863   0.65366  -0.06788
C          C       0.95239   0.05032   0.64258  -0.06359
C          C       0.04740   0.05118   0.85364  -0.06389
C          C       0.04786   0.94846   0.86804  -0.06475
C          C       0.95286   0.94765   0.65697  -0.06686
C          C       0.57001   0.57220   0.86864   0.07855
C          C       0.42944   0.57131   0.61583   0.07828
C          C       0.43080   0.42736   0.63166   0.07928
C          C       0.57172   0.42823   0.88349   0.07644
C          C       0.06941   0.07258   0.87524   0.07652
C          C       0.93041   0.07178   0.61459   0.07775
C          C       0.93096   0.92623   0.63271   0.07694
C          C       0.07056   0.92757   0.89148   0.07688
C          C       0.56461   0.59608   0.96149  -0.12910
C          C       0.43421   0.59512   0.51504  -0.12895
C          C       0.43577   0.40365   0.53680  -0.12712
C          C       0.56754   0.40365   0.97843  -0.12722
C          C       0.06419   0.09687   0.96469  -0.12231
C          C       0.93567   0.09555   0.51404  -0.12190
C          C       0.93613   0.90254   0.53767  -0.12279
C          C       0.06677   0.90317   0.98857  -0.12342
C          C       0.58480   0.61674   0.97199  -0.17085
C          C       0.41394   0.61580   0.50325  -0.17024
C          C       0.41555   0.38293   0.52932  -0.17059
C          C       0.58824   0.38319   0.98373  -0.17170
C          C       0.08446   0.11762   0.97106  -0.16998
C          C       0.91591   0.11678   0.50363  -0.16621
C          C       0.91572   0.88209   0.52549  -0.16789
C          C       0.08772   0.88293   0.99405  -0.16896
C          C       0.61162   0.61430   0.88942   0.19733
C          C       0.38777   0.61358   0.59387   0.19803
C          C       0.38923   0.38508   0.61772   0.19613
C          C       0.61440   0.38657   0.89418   0.19903
C          C       0.11118   0.11489   0.88776   0.19793
C          C       0.88977   0.11518   0.59502   0.19690
C          C       0.88894   0.88449   0.60878   0.19967
C          C       0.11366   0.88627   0.90195   0.19700
C          C       0.61737   0.59014   0.80024  -0.14698
C          C       0.38228   0.58910   0.68716  -0.14674
C          C       0.38375   0.40926   0.70730  -0.14708
C          C       0.61919   0.41172   0.80618  -0.14643
C          C       0.11682   0.09028   0.80256  -0.15071
C          C       0.88374   0.09071   0.68747  -0.14591
C          C       0.88343   0.90849   0.69993  -0.15156
C          C       0.11809   0.91132   0.81255  -0.14674
C          C       0.59707   0.56955   0.79032  -0.12317
C          C       0.40267   0.56845   0.69809  -0.12319
C          C       0.40404   0.42995   0.71373  -0.12266
C          C       0.59838   0.43200   0.80083  -0.12162
C          C       0.09648   0.06962   0.79716  -0.12980
C          C       0.90360   0.06954   0.69702  -0.13095
C          C       0.90391   0.92884   0.71149  -0.12517
C          C       0.09708   0.93140   0.80733  -0.12901
C          C       0.63200   0.65631   0.96843   0.06585
C          C       0.37081   0.65877   0.54538   0.06154
C          C       0.36999   0.34162   0.55472   0.06338
C          C       0.63558   0.34326   0.95546   0.06921
C          C       0.13250   0.15681   0.96310   0.06806
C          C       0.87310   0.16062   0.54550   0.06193
C          C       0.86839   0.84203   0.53608   0.06776
C          C       0.13413   0.84222   0.95080   0.06856
C          C       0.65374   0.67758   0.94271   0.05991
C          C       0.34957   0.68032   0.57073   0.05784
C          C       0.34834   0.32033   0.58335   0.05946
C          C       0.65725   0.32244   0.91777   0.05953
C          C       0.15394   0.17828   0.92989   0.05966
C          C       0.85185   0.18221   0.57158   0.05985
C          C       0.84638   0.82107   0.56562   0.06001
C          C       0.15592   0.82159   0.91209   0.05900
C          C       0.64873   0.70460  -0.00124  -0.13349
C          C       0.35572   0.70780   0.51932  -0.13589
C          C       0.35357   0.29307   0.53188  -0.13327
C          C       0.65420   0.29528   0.98293  -0.13543
C          C       0.14975   0.20516   0.99016  -0.13317
C          C       0.85758   0.20972   0.51872  -0.13527
C          C       0.85094   0.79376   0.51300  -0.13330
C          C       0.15258   0.79417   0.97301  -0.13362
C          C       0.66799   0.72583   0.95963  -0.13515
C          C       0.33673   0.72919   0.55438  -0.13820
C          C       0.33417   0.27196   0.57119  -0.13755
C          C       0.67375   0.27475   0.93957  -0.13461
C          C       0.16898   0.22631   0.94745  -0.13498
C          C       0.83829   0.23092   0.55331  -0.13701
C          C       0.83146   0.77289   0.55614  -0.13414
C          C       0.17213   0.77373   0.92856  -0.13618
C          C       0.69338   0.72052   0.86775   0.04624
C          C       0.31053   0.72367   0.63876   0.04479
C          C       0.30839   0.27763   0.65823   0.04521
C          C       0.69757   0.28104   0.83501   0.04536
C          C       0.19360   0.22091   0.84906   0.04541
C          C       0.81227   0.22528   0.63962   0.04475
C          C       0.80628   0.77880   0.64852   0.04463
C          C       0.19609   0.78025   0.82567   0.04702
C          C       0.69916   0.69289   0.82089  -0.09214
C          C       0.30406   0.69579   0.68543  -0.09179
C          C       0.30264   0.30538   0.70277  -0.09170
C          C       0.70121   0.30864   0.77474  -0.09289
C          C       0.19849   0.19350   0.79588  -0.09335
C          C       0.80619   0.19736   0.68694  -0.09150
C          C       0.80095   0.80667   0.69220  -0.09232
C          C       0.19998   0.80803   0.76912  -0.09485
C          C       0.67957   0.67200   0.85574  -0.10030
C          C       0.32322   0.67467   0.65325  -0.09773
C          C       0.32241   0.32614   0.66844  -0.09897
C          C       0.68117   0.32878   0.81337  -0.09998
C          C       0.17878   0.17279   0.83318  -0.09921
C          C       0.82559   0.17642   0.65493  -0.09998
C          C       0.82079   0.82721   0.65368  -0.09984
C          C       0.18005   0.82817   0.80995  -0.09808
C          C       0.71420   0.74154   0.81389   0.15655
C          C       0.28935   0.74451   0.68449   0.15268
C          C       0.28694   0.25694   0.70830   0.15709
C          C       0.71909   0.26081   0.78446   0.16520
C          C       0.21498   0.24158   0.79755   0.16038
C          C       0.79093   0.24591   0.68750   0.15164
C          C       0.78537   0.75811   0.70561   0.16026
C          C       0.21754   0.76007   0.77434   0.16418
C          C       0.73420   0.78154   0.68509   0.43839
C          C       0.26804   0.78386   0.80360   0.43910
C          C       0.26534   0.21772   0.83775   0.43943
C          C       0.74009   0.22179   0.66223   0.43726
C          C       0.23638   0.28074   0.66759   0.43848
C          C       0.76944   0.28504   0.80844   0.44013
C          C       0.76548   0.71827   0.83615   0.43684
C          C       0.23846   0.72076   0.65493   0.43818
C          C       0.75619   0.76196   0.72336  -0.21505
C          C       0.24664   0.76439   0.76032  -0.21201
C          C       0.24409   0.23731   0.78844  -0.21260
C          C       0.76176   0.24155   0.69986  -0.21126
C          C       0.25779   0.26107   0.71480  -0.21397
C          C       0.74818   0.26520   0.76929  -0.21548
C          C       0.74341   0.73781   0.79772  -0.21293
C          C       0.26014   0.74054   0.69287  -0.21224
C          C       0.68106   0.78131   0.73237  -0.05752
C          C       0.32134   0.78417   0.77226  -0.05665
C          C       0.31870   0.21721   0.80456  -0.05824
C          C       0.68708   0.22095   0.70531  -0.05708
C          C       0.18316   0.28188   0.71100  -0.05524
C          C       0.82265   0.28640   0.76634  -0.05665
C          C       0.81842   0.71844   0.78844  -0.05949
C          C       0.18529   0.72068   0.69303  -0.05929
C          C       0.67813   0.80969   0.81253  -0.19589
C          C       0.32571   0.81271   0.68765  -0.19050
C          C       0.32229   0.18840   0.73072  -0.19200
C          C       0.68469   0.19141   0.77817  -0.19876
C          C       0.18091   0.31059   0.78754  -0.19718
C          C       0.82496   0.31542   0.68507  -0.19616
C          C       0.82235   0.69110   0.69867  -0.19156
C          C       0.18173   0.69125   0.76621  -0.19718
C          C       0.64725   0.81931   0.82661  -0.10318
C          C       0.35620   0.82299   0.69628  -0.10151
C          C       0.35306   0.17859   0.73343  -0.10405
C          C       0.65444   0.18024   0.77599  -0.10120
C          C       0.15012   0.32050   0.80005  -0.10013
C          C       0.85554   0.32597   0.67600  -0.10368
C          C       0.85200   0.67915   0.71870  -0.10051
C          C       0.15068   0.68205   0.77394  -0.10407
C          C       0.64406   0.84840   0.89667  -0.37771
C          C       0.36016   0.85239   0.62381  -0.37798
C          C       0.35699   0.14905   0.67132  -0.37704
C          C       0.65237   0.14991   0.83566  -0.37885
C          C       0.14694   0.34977   0.86724  -0.37668
C          C       0.85812   0.35571   0.60681  -0.37858
C          C       0.85589   0.65053   0.64354  -0.37750
C          C       0.14720   0.65159   0.82907  -0.38025
N          N       0.63543   0.63319   0.36306  -0.29612
N          N       0.36469   0.63359   0.12020  -0.29211
N          N       0.36750   0.36525   0.14590  -0.29386
N          N       0.63352   0.36664   0.39108  -0.29181
N          N       0.13167   0.13579   0.37529  -0.29612
N          N       0.86697   0.13612   0.12535  -0.29265
N          N       0.86722   0.86682   0.13533  -0.29447
N          N       0.13281   0.86577   0.39948  -0.28947
N          N       0.71103   0.76729   0.24999  -0.11780
N          N       0.28708   0.76677   0.26007  -0.11516
N          N       0.28954   0.23215   0.27725  -0.11848
N          N       0.70777   0.23061   0.24469  -0.12287
N          N       0.20768   0.26941   0.24082  -0.12066
N          N       0.78924   0.26898   0.26384  -0.11253
N          N       0.79392   0.73092   0.24748  -0.12299
N          N       0.20536   0.72893   0.23719  -0.12390
N          N       0.49989   0.54499   0.24292  -0.25554
N          N       0.50020   0.45658   0.25058  -0.25473
N          N      -0.00040   0.04358   0.24463  -0.40632
N          N       0.00031   0.95839   0.25748  -0.40639
N          N       0.46090   0.50047   0.16149  -0.40094
N          N       0.53921   0.50102   0.33254  -0.40055
N          N       0.95958   0.00118   0.15806  -0.25382
N          N       0.04038   0.00074   0.34423  -0.25427
N          N       0.63311   0.63428   0.88097  -0.29929
N          N       0.36665   0.63390   0.60458  -0.29265
N          N       0.36801   0.36481   0.63108  -0.29791
N          N       0.63584   0.36671   0.87537  -0.29124
N          N       0.13237   0.13517   0.87263  -0.29577
N          N       0.86905   0.13590   0.60729  -0.29335
N          N       0.86729   0.86468   0.61797  -0.30002
N          N       0.13540   0.86669   0.88256  -0.29079
N          N       0.70849   0.76813   0.75274  -0.12118
N          N       0.29434   0.77105   0.74256  -0.12556
N          N       0.29172   0.23047   0.77438  -0.12161
N          N       0.71414   0.23423   0.72923  -0.11504
N          N       0.21014   0.26806   0.73261  -0.11708
N          N       0.79574   0.27247   0.74543  -0.12300
N          N       0.79108   0.73158   0.76690  -0.11582
N          N       0.21251   0.73344   0.72000  -0.11545
N          N       0.49997   0.54379   0.74459  -0.25700
N          N       0.50095   0.45563   0.75558  -0.25626
N          N      -0.00002   0.04193   0.74978  -0.40543
N          N       0.00021   0.95679   0.76231  -0.40547
N          N       0.46109   0.49954   0.66603  -0.40099
N          N       0.53983   0.49991   0.83420  -0.40150
N          N       0.95948   0.99903   0.66354  -0.25367
N          N       0.04062  -0.00015   0.84758  -0.25552
O          O       0.73576   0.80406   0.11103  -0.44341
O          O       0.26101   0.80167   0.39612  -0.44343
O          O       0.26288   0.19716   0.42092  -0.44548
O          O       0.73529   0.19590   0.11179  -0.44658
O          O       0.23431   0.30451   0.09797  -0.44519
O          O       0.76282   0.30411   0.39664  -0.44385
O          O       0.76861   0.69460   0.39007  -0.44038
O          O       0.23270   0.69414   0.10468  -0.44817
O          O       0.73414   0.80410   0.61097  -0.44448
O          O       0.26735   0.80564   0.87957  -0.44595
O          O       0.26446   0.19587   0.91908  -0.44596
O          O       0.74026   0.19990   0.58724  -0.44312
O          O       0.23707   0.30276   0.58771  -0.44587
O          O       0.76866   0.30714   0.88120  -0.44555
O          O       0.76576   0.69589   0.91210  -0.44703
O          O       0.23869   0.69871   0.58145  -0.44167

