data_crystal

_audit_creation_method 'AiiDA-DDEC plugin'

_cell_length_a        51.39762
_cell_length_b        40.32548
_cell_length_c        16.48010

_cell_angle_alpha     138.72141
_cell_angle_beta     90.61431
_cell_angle_gamma     89.69008

_symmetry_space_group_name_Hall 'P 1'
_symmetry_space_group_name_H-M  'P 1'

loop_
_symmetry_equiv_pos_as_xyz
 'x,y,z'

loop_
_atom_site_label
_atom_site_type_symbol
_atom_site_fract_x
_atom_site_fract_y
_atom_site_fract_z
_atom_site_charge
H          H       0.99586   0.04758   0.47395   0.07246
H          H       0.97447   0.08778   0.10586   0.06667
H          H       0.94901   0.03169   0.40839   0.07443
H          H       0.94219   0.01878   0.48844   0.07469
H          H       0.98414   0.82635   0.42836   0.09869
H          H       0.01140   0.84893   0.41488   0.06720
H          H       0.97494   0.88923   0.42962   0.07234
H          H       0.98854   0.93246   0.07200   0.08148
H          H       0.42929   0.41061   0.06044   0.06037
H          H       0.43353   0.42022   0.18480   0.07874
H          H       0.47902   0.40006   0.03448   0.07570
H          H       0.46197   0.35135   0.99608   0.07268
H          H       0.46073   0.65022   0.25896   0.08320
H          H       0.45613   0.59467   0.21439   0.07082
H          H       0.47681   0.59666   0.04394   0.10161
H          H       0.44331   0.58910   0.05411   0.07027
H          H       0.14927   0.02715   0.22090   0.10890
H          H       0.12001   0.05256   0.15643   0.11337
H          H       0.54048   0.37479   0.24484   0.11726
H          H       0.57129   0.34601   0.29871   0.10604
H          H       0.61020   0.36064   0.41069   0.10379
H          H       0.64835   0.50616   0.16717   0.08961
H          H       0.61696   0.53473   0.11800   0.09878
H          H       0.57460   0.66534   0.16057   0.10568
H          H       0.54058   0.63490   0.19963   0.12648
H          H       0.61362   0.64893   0.05053   0.10171
H          H       0.65128   0.50731   0.31533   0.10208
H          H       0.61985   0.47984   0.36540   0.11850
H          H       0.43799   0.52434   0.17486   0.11089
H          H       0.40488   0.59243   0.29012   0.10976
H          H       0.37052   0.64237   0.44561   0.11446
H          H       0.35483   0.62323   0.17907   0.11041
H          H       0.38800   0.55702   0.06710   0.10605
H          H       0.44769   0.42392   0.45901   0.10722
H          H       0.47808   0.47030   0.98026   0.12787
H          H       0.40424   0.38685   0.40373   0.10649
H          H       0.34557   0.41457   0.27218   0.10684
H          H       0.37567   0.47023   0.30142   0.11085
H          H       0.49261   0.54493   0.15666   0.06873
H          H       0.49466   0.59857   0.31967   0.06837
H          H       0.53663   0.55937   0.25212   0.09256
H          H       0.54036   0.61398   0.29130   0.08344
H          H       0.51194   0.43377   0.15545   0.07634
H          H       0.52157   0.38172   0.12107   0.06203
H          H       0.51031   0.43427   0.34264   0.07255
H          H       0.50372   0.48586   0.37182   0.09033
H          H       0.31138   0.64042   0.14854   0.10667
H          H       0.27691   0.70269   0.23506   0.10372
H          H       0.32948   0.78651   0.23902   0.11904
H          H       0.36405   0.72440   0.15306   0.10931
H          H       0.33612   0.33152   0.15879   0.10618
H          H       0.30532   0.27962   0.14203   0.11288
H          H       0.33674   0.34081   0.47640   0.10593
H          H       0.36723   0.39328   0.49440   0.10701
H          H       0.62742   0.36312   0.03832   0.11143
H          H       0.66197   0.33111   0.07044   0.10782
H          H       0.71746   0.42936   0.13788   0.10490
H          H       0.68313   0.45937   0.09868   0.10878
H          H       0.68482   0.55322   0.35274   0.10455
H          H       0.71211   0.57745   0.28138   0.10841
H          H       0.64897   0.66389   0.34051   0.10864
H          H       0.62135   0.63854   0.40839   0.10866
H          H       0.28612   0.80782   0.27366   0.11730
H          H       0.26253   0.76233   0.21398   0.10810
H          H       0.25762   0.79592   0.41319   0.09920
H          H       0.29650   0.29117   0.38719   0.11379
H          H       0.28212   0.26811   0.25429   0.11013
H          H       0.33218   0.22717   0.25734   0.10803
H          H       0.69568   0.67991   0.32860   0.11616
H          H       0.72024   0.63848   0.28389   0.10615
H          H       0.67488   0.61125   0.11806   0.11005
H          H       0.70933   0.32072   0.07783   0.10332
H          H       0.73227   0.36193   0.10937   0.10211
H          H       0.71898   0.43132   0.32768   0.11132
H          H       0.27435   0.91428   0.51994   0.12798
H          H       0.24447   0.95953   0.51197   0.11710
H          H       0.18587   0.84566   0.33935   0.11084
H          H       0.21613   0.79983   0.34653   0.10579
H          H       0.68133   0.68018   0.14862   0.11465
H          H       0.70911   0.72200   0.12346   0.11715
H          H       0.77444   0.63359   0.04132   0.10771
H          H       0.74658   0.59154   0.06539   0.11610
H          H       0.70646   0.33236   0.29727   0.12250
H          H       0.74052   0.28703   0.29229   0.11019
H          H       0.79989   0.36089   0.28922   0.11750
H          H       0.76574   0.40540   0.29152   0.11578
H          H       0.32761   0.18314   0.29656   0.11441
H          H       0.30124   0.13661   0.31002   0.12107
H          H       0.23501   0.14477   0.16269   0.11072
H          H       0.26152   0.19075   0.14773   0.10379
H          H       0.17571   0.92155   0.39932   0.10469
H          H       0.19849   0.85500   0.19839   0.10911
H          H       0.22237   0.89865   0.24769   0.11734
H          H       0.23040   0.10177   0.20749   0.11212
H          H       0.23865   0.18927   0.43134   0.10768
H          H       0.26076   0.16014   0.44592   0.10254
H          H       0.78508   0.26810   0.28503   0.10466
H          H       0.80594   0.26087   0.09838   0.11111
H          H       0.78013   0.22514   0.07237   0.11320
H          H       0.77757   0.68194   0.00844   0.10424
H          H       0.78210   0.74157   0.23765   0.11841
H          H       0.76040   0.78307   0.26442   0.11759
H          H       0.05304   0.88292   0.24053   0.12232
H          H       0.08239   0.85929   0.30971   0.10617
H          H       0.11677   0.88194   0.45092   0.10414
H          H       0.01330   0.97755   0.31430   0.08170
H          H       0.02059   0.93352   0.30970   0.08532
H          H       0.04669   0.88541   0.10660   0.06506
H          H       0.02917   0.92433   0.10969   0.06773
H          H       0.18654   0.97465   0.15311   0.10623
H          H       0.21485   0.94996   0.22293   0.11462
H          H       0.15058   0.87121   0.18599   0.10632
H          H       0.12251   0.89468   0.11255   0.10570
H          H       0.92576   0.03337   0.15377   0.10695
H          H       0.88957   0.08572   0.29447   0.10901
H          H       0.85638   0.06318   0.48900   0.10973
H          H       0.88503   0.99087   0.37962   0.11235
H          H       0.82029   0.09061   0.46659   0.10699
H          H       0.78989   0.15840   0.05730   0.10619
H          H       0.85092   0.23818   0.08203   0.11475
H          H       0.88145   0.16660   0.47834   0.10557
H          H       0.08622   0.18136   0.18905   0.10825
H          H       0.04878   0.15189   0.21328   0.11047
H          H       0.12957   0.16648   0.10379   0.10530
H          H       0.16989   0.02380   0.38681   0.09663
H          H       0.13142   0.99354   0.40066   0.10074
H          H       0.03244   0.12129   0.29072   0.08161
H          H       0.01678   0.11355   0.18032   0.06465
H          H       0.20438   0.06898   0.45981   0.11016
H          H       0.24227   0.09289   0.42096   0.11497
H          H       0.19265   0.18180   0.43029   0.10691
H          H       0.15455   0.15667   0.46487   0.10592
H          H       0.93565   0.84599   0.28399   0.11211
H          H       0.97053   0.90323   0.33415   0.11924
H          H       0.88995   0.82171   0.23955   0.11442
H          H       0.84032   0.85808   0.10288   0.11112
H          H       0.87590   0.90595   0.12829   0.11394
H          H       0.81167   0.86592   0.21850   0.10769
H          H       0.77470   0.83128   0.23174   0.11432
H          H       0.82588   0.72411   0.14806   0.10836
H          H       0.86261   0.75714   0.12921   0.10670
H          H       0.98866   0.09187   0.25779   0.06239
H          H       0.01038   0.04243   0.19488   0.09719
H          H       0.95539   0.96261   0.04562   0.11406
H          H       0.99729   0.04819   0.98346   0.07529
H          H       0.97392   0.08795   0.59950   0.06719
H          H       0.95090   0.03502   0.91333   0.07458
H          H       0.94234   0.01834   0.98357   0.07557
H          H       0.98357   0.82466   0.93797   0.09870
H          H       0.01076   0.84506   0.91820   0.06733
H          H       0.97374   0.88276   0.92392   0.07444
H          H       0.98933   0.93669   0.57964   0.08306
H          H       0.42752   0.41056   0.57155   0.06243
H          H       0.43454   0.41696   0.68922   0.07969
H          H       0.47673   0.39841   0.52968   0.07428
H          H       0.46041   0.34899   0.49071   0.07536
H          H       0.45930   0.64726   0.78261   0.07309
H          H       0.45694   0.58443   0.70233   0.06646
H          H       0.47393   0.61126   0.57937   0.10437
H          H       0.44081   0.59963   0.58411   0.07063
H          H       0.15060   0.03025   0.72026   0.10879
H          H       0.12189   0.05407   0.65074   0.11247
H          H       0.54565   0.36747   0.71408   0.11884
H          H       0.57611   0.34082   0.77451   0.10651
H          H       0.61248   0.35989   0.90275   0.10260
H          H       0.65052   0.50239   0.65793   0.09058
H          H       0.61880   0.53356   0.61669   0.09954
H          H       0.57510   0.66908   0.67861   0.10590
H          H       0.54222   0.64062   0.72542   0.12224
H          H       0.61332   0.65129   0.56177   0.10183
H          H       0.65378   0.50752   0.81550   0.10280
H          H       0.62201   0.47919   0.86217   0.11766
H          H       0.43714   0.52317   0.68408   0.11040
H          H       0.40413   0.59142   0.80155   0.11274
H          H       0.37060   0.64133   0.95821   0.11127
H          H       0.35295   0.62221   0.66082   0.11071
H          H       0.38671   0.55702   0.55271   0.10849
H          H       0.44732   0.41067   0.93570   0.10712
H          H       0.47739   0.48464   0.50216   0.12600
H          H       0.40332   0.37742   0.88791   0.10576
H          H       0.34381   0.41771   0.78870   0.10714
H          H       0.37435   0.47392   0.82269   0.10956
H          H       0.49386   0.54968   0.69248   0.06570
H          H       0.49564   0.61060   0.84892   0.06606
H          H       0.53755   0.56945   0.78580   0.09406
H          H       0.54073   0.62165   0.81492   0.07994
H          H       0.50984   0.43440   0.64966   0.07561
H          H       0.52255   0.38028   0.59995   0.06239
H          H       0.51377   0.42466   0.81697   0.07289
H          H       0.50552   0.47955   0.86194   0.08517
H          H       0.30921   0.63403   0.60744   0.10693
H          H       0.27488   0.69734   0.69914   0.10273
H          H       0.33034   0.79219   0.75326   0.11584
H          H       0.36458   0.72847   0.65990   0.11031
H          H       0.33414   0.33148   0.66018   0.10564
H          H       0.30292   0.27814   0.63661   0.11191
H          H       0.33466   0.33171   0.96145   0.10397
H          H       0.36577   0.38546   0.98597   0.10956
H          H       0.62557   0.36767   0.55586   0.11158
H          H       0.65937   0.33565   0.59125   0.10855
H          H       0.71768   0.41938   0.61720   0.10426
H          H       0.68399   0.45038   0.57837   0.10872
H          H       0.68656   0.55347   0.85086   0.10457
H          H       0.71387   0.57785   0.78013   0.10688
H          H       0.65048   0.66301   0.83541   0.10886
H          H       0.62277   0.63711   0.90141   0.10859
H          H       0.28697   0.81436   0.78676   0.11713
H          H       0.26335   0.76667   0.70711   0.10897
H          H       0.25496   0.78783   0.88809   0.09908
H          H       0.29227   0.28624   0.87346   0.11453
H          H       0.28002   0.26120   0.73535   0.11017
H          H       0.32937   0.22413   0.75464   0.10769
H          H       0.69807   0.67997   0.82735   0.11737
H          H       0.72197   0.63684   0.77791   0.10463
H          H       0.67630   0.61390   0.61885   0.10991
H          H       0.70638   0.31956   0.58729   0.10509
H          H       0.73043   0.35318   0.59520   0.10261
H          H       0.72176   0.43040   0.81758   0.10986
H          H       0.27198   0.91401   0.03101   0.12436
H          H       0.24324   0.96209   0.02886   0.11731
H          H       0.18535   0.84459   0.82614   0.11063
H          H       0.21457   0.79572   0.82693   0.10619
H          H       0.68309   0.68029   0.64433   0.11476
H          H       0.71107   0.72186   0.61885   0.11821
H          H       0.77630   0.63426   0.54100   0.10816
H          H       0.74821   0.59244   0.56526   0.11302
H          H       0.70878   0.33870   0.81356   0.12214
H          H       0.74297   0.29311   0.80727   0.11012
H          H       0.80174   0.35875   0.77647   0.11783
H          H       0.76746   0.40305   0.77896   0.11542
H          H       0.32508   0.18016   0.79300   0.11643
H          H       0.29870   0.13483   0.80994   0.12050
H          H       0.23246   0.14120   0.65935   0.11165
H          H       0.25897   0.18563   0.63976   0.10348
H          H       0.17553   0.92255   0.89865   0.10259
H          H       0.20194   0.86141   0.70454   0.10865
H          H       0.22366   0.91016   0.76813   0.11801
H          H       0.22811   0.09906   0.70699   0.11193
H          H       0.23474   0.18905   0.92667   0.10783
H          H       0.25717   0.16426   0.95260   0.10377
H          H       0.78773   0.27088   0.78841   0.10494
H          H       0.80597   0.25948   0.59180   0.11167
H          H       0.78033   0.22597   0.57540   0.11341
H          H       0.78034   0.68353   0.51253   0.10408
H          H       0.78249   0.74399   0.74238   0.11780
H          H       0.76067   0.78393   0.76357   0.11733
H          H       0.05453   0.87979   0.72916   0.12134
H          H       0.08419   0.85485   0.79454   0.10605
H          H       0.11792   0.87687   0.93627   0.10366
H          H       0.01289   0.97313   0.80888   0.08431
H          H       0.02163   0.92738   0.79696   0.08442
H          H       0.04754   0.88366   0.59892   0.06468
H          H       0.03060   0.92499   0.60884   0.06935
H          H       0.18693   0.97792   0.65474   0.10663
H          H       0.21569   0.95521   0.72792   0.11548
H          H       0.15173   0.87981   0.70475   0.10561
H          H       0.12298   0.90212   0.63030   0.10637
H          H       0.92548   0.03642   0.65831   0.10615
H          H       0.88969   0.08887   0.80249   0.10927
H          H       0.85760   0.06436   0.99420   0.10965
H          H       0.88638   0.99189   0.88183   0.11139
H          H       0.82052   0.09010   0.96565   0.10733
H          H       0.79028   0.15994   0.56058   0.10608
H          H       0.85120   0.23545   0.57026   0.11503
H          H       0.88172   0.17027   0.99206   0.10581
H          H       0.08898   0.18111   0.67851   0.10799
H          H       0.05073   0.15358   0.70481   0.11060
H          H       0.13220   0.16458   0.59361   0.10454
H          H       0.16856   0.02665   0.89548   0.09662
H          H       0.13079   0.99508   0.90889   0.09887
H          H       0.03300   0.12584   0.78449   0.08018
H          H       0.01743   0.11503   0.66913   0.06583
H          H       0.20245   0.07414   0.97438   0.11061
H          H       0.23983   0.09758   0.93197   0.11385
H          H       0.18885   0.18150   0.92899   0.10741
H          H       0.15122   0.15678   0.96715   0.10788
H          H       0.93692   0.85041   0.79224   0.10954
H          H       0.97172   0.90671   0.83771   0.12044
H          H       0.89121   0.82589   0.74868   0.11447
H          H       0.84154   0.85776   0.60171   0.10999
H          H       0.87679   0.90550   0.62534   0.11396
H          H       0.81257   0.86621   0.71638   0.10758
H          H       0.77556   0.83161   0.72935   0.11404
H          H       0.82731   0.73016   0.66673   0.10770
H          H       0.86412   0.76277   0.64759   0.10640
H          H       0.98957   0.09654   0.75491   0.06199
H          H       0.01165   0.04856   0.69810   0.09845
H          H       0.95497   0.96503   0.54558   0.11499
C          C       0.59363   0.41510   0.42837   0.06473
C          C       0.59602   0.46466   0.48573   0.04814
C          C       0.57782   0.48122   0.45627  -0.07429
C          C       0.55825   0.44863   0.36969   0.20229
C          C       0.55581   0.39968   0.31276  -0.22711
C          C       0.57306   0.38362   0.34244  -0.12298
C          C       0.61187   0.39882   0.45774  -0.17780
C          C       0.63254   0.43081   0.03938   0.06423
C          C       0.63342   0.48031   0.09828  -0.11400
C          C       0.61589   0.49641   0.07007  -0.13128
C          C       0.57887   0.53013   0.00514  -0.05940
C          C       0.59760   0.54914   0.49215   0.04316
C          C       0.59692   0.59642   0.03851   0.05995
C          C       0.57595   0.62806   0.11894  -0.13431
C          C       0.55722   0.61167   0.14202  -0.21600
C          C       0.55882   0.56270   0.08552   0.20320
C          C       0.61556   0.61170   0.00886  -0.20085
C          C       0.63415   0.58133   0.43260   0.04310
C          C       0.63609   0.53315   0.38131  -0.13112
C          C       0.61826   0.51736   0.40876  -0.11848
C          C       0.39351   0.58627   0.40489   0.06467
C          C       0.39822   0.56078   0.43362   0.03511
C          C       0.41779   0.52265   0.36849  -0.08382
C          C       0.43142   0.51022   0.27562   0.20902
C          C       0.42684   0.53579   0.24842  -0.19342
C          C       0.40840   0.57300   0.31165  -0.12451
C          C       0.37419   0.62399   0.46985  -0.19098
C          C       0.36014   0.63731   0.07643   0.06183
C          C       0.36544   0.61220   0.10488  -0.13550
C          C       0.38414   0.57512   0.04235  -0.14350
C          C       0.42461   0.49768   0.40056  -0.07759
C          C       0.40723   0.46316   0.37576   0.03567
C          C       0.41541   0.43757   0.40131   0.06537
C          C       0.44122   0.44465   0.44373  -0.11299
C          C       0.45767   0.47815   0.46798  -0.18929
C          C       0.44918   0.50577   0.45002   0.20338
C          C       0.39768   0.40571   0.38327  -0.18678
C          C       0.37257   0.39751   0.33915   0.06034
C          C       0.36517   0.42069   0.30718  -0.13592
C          C       0.38192   0.45225   0.32447  -0.13940
C          C       0.50162   0.58227   0.23228  -0.01463
C          C       0.53092   0.57698   0.22656  -0.00646
C          C       0.50880   0.41492   0.17937  -0.01450
C          C       0.51515   0.45135   0.31550  -0.00736
C          C       0.65267   0.41352   0.06545   0.07078
C          C       0.65113   0.59538   0.39021   0.06154
C          C       0.34012   0.67692   0.14094   0.05823
C          C       0.35410   0.36611   0.32747   0.06007
C          C       0.31552   0.67263   0.16926  -0.13728
C          C       0.29601   0.70774   0.21746  -0.15058
C          C       0.30045   0.74841   0.23985   0.10492
C          C       0.32542   0.75431   0.21852  -0.14057
C          C       0.34487   0.71918   0.16958  -0.13152
C          C       0.33610   0.33415   0.22950  -0.13651
C          C       0.31876   0.30478   0.21986  -0.14487
C          C       0.31873   0.30651   0.30811   0.10011
C          C       0.33664   0.33842   0.40603  -0.15185
C          C       0.35399   0.36777   0.41586  -0.13430
C          C       0.64725   0.37697   0.05745  -0.13404
C          C       0.66677   0.35901   0.07591  -0.14177
C          C       0.69232   0.37748   0.10520   0.09128
C          C       0.69775   0.41454   0.11536  -0.14968
C          C       0.67833   0.43212   0.09532  -0.13417
C          C       0.67675   0.57753   0.35045  -0.13439
C          C       0.69223   0.59121   0.31000  -0.13865
C          C       0.68278   0.62329   0.30808   0.10066
C          C       0.65700   0.63995   0.34411  -0.14601
C          C       0.64147   0.62616   0.38383  -0.13255
C          C       0.27908   0.78371   0.27858  -0.22714
C          C       0.26746   0.81909   0.40991  -0.03337
C          C       0.28805   0.84707   0.50337   0.24507
C          C       0.24768   0.85288   0.42972   0.06402
C          C       0.30078   0.27360   0.29627  -0.22876
C          C       0.31275   0.22098   0.21875  -0.03231
C          C       0.31669   0.19289   0.09202   0.25404
C          C       0.29641   0.19077   0.22255   0.06022
C          C       0.69958   0.64033   0.27029  -0.22788
C          C       0.69561   0.61018   0.13399  -0.04417
C          C       0.70264   0.55759   0.04973   0.27211
C          C       0.71221   0.63361   0.11077   0.07752
C          C       0.71280   0.35998   0.13238  -0.22022
C          C       0.71374   0.39233   0.27179  -0.05446
C          C       0.68772   0.39414   0.30899   0.25623
C          C       0.73378   0.37038   0.28966   0.08195
C          C       0.25506   0.89868   0.47925  -0.12729
C          C       0.23808   0.92424   0.47394  -0.12600
C          C       0.21347   0.90445   0.41953   0.06777
C          C       0.20542   0.86027   0.37724  -0.14211
C          C       0.22240   0.83467   0.38205  -0.14904
C          C       0.70184   0.67046   0.12702  -0.12276
C          C       0.71749   0.69403   0.11273  -0.13339
C          C       0.74375   0.68117   0.08217   0.06396
C          C       0.75406   0.64411   0.06540  -0.14375
C          C       0.73846   0.62061   0.07966  -0.13588
C          C       0.72692   0.33807   0.29363  -0.13701
C          C       0.74617   0.31283   0.29169  -0.14699
C          C       0.77250   0.31959   0.28627   0.06120
C          C       0.77942   0.35413   0.28942  -0.14627
C          C       0.76024   0.37924   0.29117  -0.13847
C          C       0.30732   0.17477   0.26686  -0.13664
C          C       0.29242   0.14816   0.27388  -0.12797
C          C       0.26623   0.13760   0.23759   0.07966
C          C       0.25532   0.15310   0.19205  -0.13789
C          C       0.27033   0.17929   0.18406  -0.14065
C          C       0.19640   0.92569   0.39091  -0.04316
C          C       0.20167   0.89453   0.25458  -0.22645
C          C       0.20082   0.97905   0.47346   0.27326
C          C       0.24894   0.11401   0.25802  -0.04557
C          C       0.24290   0.15405   0.39871  -0.22346
C          C       0.26030   0.06913   0.21215   0.27088
C          C       0.79291   0.28523   0.26101  -0.03544
C          C       0.79895   0.24249   0.11995  -0.22762
C          C       0.81668   0.31226   0.33358   0.25012
C          C       0.76203   0.70814   0.07401  -0.03703
C          C       0.77534   0.75446   0.20147  -0.22965
C          C       0.75198   0.72337   0.52373   0.25454
C          C       0.10128   0.93215   0.45175   0.05714
C          C       0.10221   0.97910   0.00570   0.03898
C          C       0.08568   0.99489   0.46659  -0.06623
C          C       0.06778   0.95943   0.37221   0.20846
C          C       0.06671   0.91035   0.31554  -0.22474
C          C       0.08319   0.89712   0.35421  -0.13100
C          C       0.11798   0.91963   0.49467  -0.20095
C          C       0.13573   0.94970   0.08203   0.05521
C          C       0.13623  -0.00040   0.14261  -0.12555
C          C       0.11978   0.01393   0.10673  -0.12429
C          C       0.02733   0.94878   0.27979  -0.00538
C          C       0.02871   0.90743   0.13955  -0.02175
C          C       0.15266   0.93537   0.12464   0.05963
C          C       0.17869   0.95140   0.15862  -0.12483
C          C       0.19461   0.93778   0.19897  -0.14075
C          C       0.18481   0.90860   0.20893   0.09899
C          C       0.15870   0.89306   0.17654  -0.15143
C          C       0.14289   0.90595   0.13436  -0.13121
C          C       0.90565   0.02443   0.25124   0.05664
C          C       0.90428   0.99575   0.27231   0.03563
C          C       0.92161   0.95466   0.20942  -0.08156
C          C       0.93955   0.94275   0.12709   0.20704
C          C       0.94122   0.97166   0.10830  -0.21715
C          C       0.92451   0.01138   0.16887  -0.11578
C          C       0.88866   0.06560   0.31489  -0.18698
C          C       0.87075   0.07992   0.39925   0.05484
C          C       0.86985   0.05179   0.42104  -0.13553
C          C       0.88604   0.01137   0.36036  -0.14637
C          C       0.85312   0.12279   0.46314   0.05992
C          C       0.82735   0.12261   0.49086  -0.13675
C          C       0.81008   0.16130   0.04380  -0.15066
C          C       0.81803   0.20287   0.07420   0.10046
C          C       0.84417   0.20565   0.05620  -0.14249
C          C       0.86153   0.16724   0.00497  -0.13461
C          C       0.08563   0.04498   0.02820  -0.06775
C          C       0.10772   0.06256   0.01708   0.04241
C          C       0.10795   0.11227   0.07439   0.06253
C          C       0.08609   0.14345   0.14415  -0.12317
C          C       0.06503   0.12677   0.15742  -0.22999
C          C       0.06470   0.07742   0.09915   0.20012
C          C       0.12988   0.12887   0.06071  -0.19334
C          C       0.15377   0.09631   0.48673   0.05298
C          C       0.15313   0.04825   0.43620  -0.12275
C          C       0.13144   0.03113   0.44433  -0.12922
C          C       0.00266   0.06412   0.18326  -0.01652
C          C       0.02446   0.09324   0.19612  -0.02596
C          C       0.17659   0.11149   0.46676   0.05906
C          C       0.20166   0.09346   0.45249  -0.13443
C          C       0.22309   0.10730   0.43160  -0.13959
C          C       0.22026   0.13973   0.42471   0.09871
C          C       0.19528   0.15736   0.43773  -0.14705
C          C       0.17382   0.14349   0.45809  -0.13653
C          C       0.92345   0.92628   0.23475  -0.07141
C          C       0.90344   0.89369   0.20418   0.03989
C          C       0.90758   0.86639   0.22830   0.06783
C          C       0.93236   0.86839   0.27076  -0.12448
C          C       0.95146   0.89967   0.29899  -0.19228
C          C       0.94639   0.93059   0.28802   0.20627
C          C       0.88670   0.83929   0.21303  -0.18874
C          C       0.86222   0.83761   0.17359   0.05723
C          C       0.85898   0.86132   0.14023  -0.13882
C          C       0.87892   0.88803   0.15395  -0.13243
C          C       0.84001   0.81438   0.17321   0.05936
C          C       0.81480   0.83417   0.20053  -0.13269
C          C       0.79399   0.81507   0.20969  -0.14452
C          C       0.79765   0.77562   0.19244   0.09810
C          C       0.82266   0.75504   0.16268  -0.15470
C          C       0.84345   0.77390   0.15285  -0.13685
C          C       0.98107   0.04851   0.02727  -0.01594
C          C       0.95731   0.01707   0.43865  -0.01222
C          C       0.99545   0.85758   0.98292  -0.01763
C          C       0.97843   0.89610   0.01024  -0.01962
C          C       0.44305   0.42318   0.13115  -0.01713
C          C       0.46747   0.39143   0.07278  -0.01055
C          C       0.46773   0.61148   0.19646  -0.02123
C          C       0.46328   0.58312   0.06516  -0.02242
C          C       0.59542   0.41311   0.91708   0.06599
C          C       0.59665   0.46323   0.97707   0.04460
C          C       0.57879   0.47823   0.94263  -0.07309
C          C       0.56053   0.44380   0.85001   0.20167
C          C       0.55958   0.39399   0.78886  -0.22445
C          C       0.57660   0.37921   0.82233  -0.12574
C          C       0.61329   0.39841   0.95148  -0.18022
C          C       0.63241   0.42923   0.53867   0.06280
C          C       0.63454   0.47810   0.59449  -0.11618
C          C       0.61679   0.49568   0.57086  -0.13306
C          C       0.57847   0.53328   0.51969  -0.06161
C          C       0.59856   0.54692   0.98187   0.04316
C          C       0.59646   0.59901   0.55056   0.05963
C          C       0.57633   0.63163   0.63600  -0.13254
C          C       0.55815   0.61618   0.66340  -0.21511
C          C       0.55944   0.56713   0.60661   0.20731
C          C       0.61478   0.61368   0.51834  -0.20054
C          C       0.63560   0.58029   0.92689   0.04611
C          C       0.63808   0.53271   0.87840  -0.13134
C          C       0.62003   0.51634   0.90369  -0.11779
C          C       0.39344   0.58510   0.91647   0.06401
C          C       0.39850   0.55958   0.94486   0.03314
C          C       0.41787   0.52090   0.87773  -0.08165
C          C       0.43114   0.50858   0.78425   0.20603
C          C       0.42627   0.53444   0.75798  -0.19546
C          C       0.40789   0.57178   0.82232  -0.12279
C          C       0.37438   0.62328   0.98322  -0.18715
C          C       0.35942   0.63698   0.56051   0.06035
C          C       0.36420   0.61169   0.58862  -0.13712
C          C       0.38317   0.57530   0.52833  -0.14608
C          C       0.42468   0.49470   0.90663  -0.09013
C          C       0.40663   0.46072   0.88151   0.03618
C          C       0.41469   0.43131   0.89628   0.06268
C          C       0.44095   0.43417   0.92855  -0.11125
C          C       0.45798   0.46722   0.95395  -0.18679
C          C       0.44977   0.49881   0.94746   0.20265
C          C       0.39661   0.39934   0.87627  -0.18573
C          C       0.37110   0.39448   0.83994   0.05857
C          C       0.36368   0.42140   0.81830  -0.13610
C          C       0.38079   0.45325   0.83805  -0.14082
C          C       0.50234   0.58755   0.75501  -0.01461
C          C       0.53181   0.58440   0.75340  -0.00740
C          C       0.50911   0.41220   0.66506  -0.01301
C          C       0.51710   0.44500   0.79747  -0.00707
C          C       0.65226   0.41107   0.56329   0.07147
C          C       0.65268   0.59470   0.88559   0.06054
C          C       0.33929   0.67627   0.62498   0.05963
C          C       0.35232   0.36243   0.82472   0.06140
C          C       0.31394   0.66895   0.64065  -0.13840
C          C       0.29461   0.70473   0.69228  -0.15074
C          C       0.30003   0.74919   0.73147   0.10214
C          C       0.32561   0.75745   0.72095  -0.13754
C          C       0.34487   0.72150   0.66781  -0.13278
C          C       0.33412   0.33213   0.72738  -0.13727
C          C       0.31652   0.30198   0.71396  -0.14526
C          C       0.31635   0.30141   0.79796   0.09924
C          C       0.33453   0.33155   0.89507  -0.15102
C          C       0.35221   0.36154   0.90847  -0.13551
C          C       0.64583   0.37826   0.56668  -0.13371
C          C       0.66490   0.36020   0.58660  -0.14045
C          C       0.69105   0.37444   0.60438   0.09209
C          C       0.69749   0.40781   0.60319  -0.15217
C          C       0.67848   0.42580   0.58287  -0.13529
C          C       0.67841   0.57735   0.84735  -0.13259
C          C       0.69393   0.59125   0.80754  -0.13997
C          C       0.68444   0.62303   0.80471   0.10063
C          C       0.65858   0.63930   0.83955  -0.14509
C          C       0.64298   0.62521   0.87839  -0.13167
C          C       0.27902   0.78612   0.77644  -0.22765
C          C       0.26528   0.81517   0.89999  -0.03225
C          C       0.28409   0.84103   0.00000   0.24508
C          C       0.24570   0.85055   0.92512   0.06324
C          C       0.29795   0.26811   0.78314  -0.22783
C          C       0.31031   0.21653   0.71187  -0.03442
C          C       0.31541   0.18683   0.58458   0.25539
C          C       0.29385   0.18694   0.71725   0.05920
C          C       0.70134   0.64002   0.76705  -0.22822
C          C       0.69694   0.61117   0.63213  -0.04265
C          C       0.70284   0.55789   0.54468   0.27072
C          C       0.71387   0.63431   0.60901   0.07606
C          C       0.71146   0.35668   0.63110  -0.22287
C          C       0.71539   0.39348   0.77255  -0.05185
C          C       0.69020   0.40162   0.82466   0.25445
C          C       0.73572   0.37220   0.79124   0.08230
C          C       0.25309   0.89819   0.98495  -0.12408
C          C       0.23671   0.92549   0.98324  -0.12817
C          C       0.21266   0.90558   0.92230   0.06912
C          C       0.20448   0.85944   0.86975  -0.14213
C          C       0.22088   0.83212   0.87086  -0.14938
C          C       0.70363   0.67080   0.62377  -0.12168
C          C       0.71938   0.69419   0.60932  -0.13467
C          C       0.74568   0.68147   0.58007   0.06475
C          C       0.75588   0.64462   0.56426  -0.14490
C          C       0.74013   0.62128   0.57865  -0.13287
C          C       0.72911   0.34236   0.80311  -0.13658
C          C       0.74845   0.31703   0.80053  -0.14665
C          C       0.77462   0.32143   0.78698   0.06088
C          C       0.78135   0.35373   0.78274  -0.14478
C          C       0.76209   0.37877   0.78468  -0.13810
C          C       0.30478   0.17174   0.76344  -0.13809
C          C       0.28989   0.14575   0.77233  -0.12869
C          C       0.26369   0.13518   0.73640   0.08001
C          C       0.25278   0.14969   0.68854  -0.13775
C          C       0.26779   0.17514   0.67835  -0.14035
C          C       0.19631   0.92887   0.89751  -0.04279
C          C       0.20321   0.90190   0.76640  -0.22534
C          C       0.19981   0.98308   0.98810   0.27199
C          C       0.24630   0.11318   0.76088  -0.04738
C          C       0.23949   0.15553   0.90103  -0.22350
C          C       0.25809   0.07023   0.72307   0.26921
C          C       0.79500   0.28673   0.76036  -0.03484
C          C       0.79958   0.24260   0.61804  -0.22915
C          C       0.81932   0.31316   0.82741   0.25108
C          C       0.76418   0.70890   0.57406  -0.03546
C          C       0.77619   0.75625   0.70424  -0.22925
C          C       0.74919   0.72430   0.02874   0.25696
C          C       0.10180   0.92858   0.94345   0.05761
C          C       0.10260   0.98163   0.50805   0.03850
C          C       0.08511   0.99318   0.96669  -0.06765
C          C       0.06787   0.95740   0.86897   0.20873
C          C       0.06768   0.90734   0.80673  -0.22645
C          C       0.08435   0.89336   0.84303  -0.13049
C          C       0.11859   0.91526   0.98406  -0.20202
C          C       0.13582   0.95386   0.58937   0.05574
C          C       0.13708   0.00273   0.64426  -0.12648
C          C       0.12086   0.01626   0.60585  -0.12570
C          C       0.02773   0.94528   0.77314  -0.00791
C          C       0.02969   0.90620   0.63369  -0.02222
C          C       0.15298   0.94050   0.63375   0.05865
C          C       0.17914   0.95595   0.66429  -0.12663
C          C       0.19538   0.94341   0.70648  -0.13962
C          C       0.18588   0.91555   0.72079   0.09828
C          C       0.15965   0.90057   0.69174  -0.15015
C          C       0.14346   0.91265   0.64855  -0.13016
C          C       0.90600   0.02671   0.75537   0.05757
C          C       0.90492   0.99731   0.77442   0.03656
C          C       0.92218   0.95585   0.70874  -0.08098
C          C       0.93990   0.94455   0.62658   0.20631
C          C       0.94111   0.97391   0.60899  -0.21609
C          C       0.92445   0.01393   0.67204  -0.11709
C          C       0.88904   0.06813   0.82126  -0.18812
C          C       0.87135   0.08191   0.90558   0.05570
C          C       0.87082   0.05325   0.92592  -0.13651
C          C       0.88706   0.01268   0.86332  -0.14592
C          C       0.85341   0.12446   0.96960   0.05969
C          C       0.82743   0.12282   0.99273  -0.13680
C          C       0.81035   0.16170   0.54342  -0.15072
C          C       0.81842   0.20241   0.57055   0.10015
C          C       0.84437   0.20366   0.54743  -0.14177
C          C       0.86139   0.16466   0.49490  -0.13465
C          C       0.08674   0.04578   0.52333  -0.06890
C          C       0.10909   0.06190   0.50939   0.04275
C          C       0.10990   0.11132   0.56521   0.06101
C          C       0.08833   0.14347   0.63512  -0.12243
C          C       0.06685   0.12792   0.64952  -0.23050
C          C       0.06596   0.07895   0.59329   0.20162
C          C       0.13217   0.12703   0.55084  -0.19182
C          C       0.15163   0.09873   0.99616   0.05485
C          C       0.15164   0.05059   0.94514  -0.12270
C          C       0.13031   0.03266   0.95258  -0.12974
C          C       0.00364   0.06836   0.68153  -0.01783
C          C       0.02518   0.09645   0.68969  -0.02386
C          C       0.17406   0.11426   0.97551   0.05971
C          C       0.19934   0.09753   0.96392  -0.13436
C          C       0.22046   0.11112   0.94118  -0.14246
C          C       0.21705   0.14195   0.92962   0.09910
C          C       0.19186   0.15831   0.94003  -0.14802
C          C       0.17069   0.14469   0.96238  -0.13837
C          C       0.92438   0.92724   0.73328  -0.07011
C          C       0.90447   0.89495   0.70457   0.04095
C          C       0.90876   0.86882   0.73189   0.06740
C          C       0.93359   0.87163   0.77559  -0.12532
C          C       0.95267   0.90237   0.80117  -0.19254
C          C       0.94747   0.93193   0.78629   0.20807
C          C       0.88790   0.84235   0.71925  -0.18825
C          C       0.86339   0.83977   0.67845   0.05744
C          C       0.86011   0.86194   0.64099  -0.13783
C          C       0.87993   0.88841   0.65315  -0.13172
C          C       0.84122   0.81703   0.68005   0.05916
C          C       0.81584   0.83557   0.70258  -0.13204
C          C       0.79497   0.81648   0.71147  -0.14375
C          C       0.79868   0.77838   0.69905   0.09665
C          C       0.82395   0.75965   0.67625  -0.15338
C          C       0.84481   0.77840   0.66646  -0.13521
C          C       0.98056   0.04864   0.52225  -0.01639
C          C       0.95823   0.01824   0.93926  -0.00983
C          C       0.99614   0.85974   0.47780  -0.01743
C          C       0.97930   0.90010   0.51276  -0.01932
C          C       0.44260   0.42129   0.63617  -0.01828
C          C       0.46653   0.38867   0.56798  -0.01100
C          C       0.46704   0.60896   0.70404  -0.02254
C          C       0.46119   0.59166   0.58597  -0.01382
N          N       0.29923   0.86153   0.07948  -0.37632
N          N       0.31929   0.17097   0.99102  -0.37488
N          N       0.66637   0.39327   0.33064  -0.36091
N          N       0.70903   0.51611   0.47702  -0.38361
N          N       0.20280   0.02601   0.05573  -0.37618
N          N       0.26924   0.03366   0.17802  -0.38328
N          N       0.83589   0.33384   0.38927  -0.39115
N          N       0.74223   0.73634   0.48683  -0.38573
N          N       0.30480   0.86905   0.57659  -0.37409
N          N       0.31902   0.16331   0.48279  -0.37529
N          N       0.66914   0.40585   0.85702  -0.35660
N          N       0.71004   0.51668   0.98502  -0.38553
N          N       0.20455   0.02120   0.53513  -0.37651
N          N       0.26743   0.03625   0.69479  -0.38268
N          N       0.83883   0.33458   0.87921  -0.39179
N          N       0.73901   0.73912   0.99707  -0.38724
O          O       0.45078   0.47447   0.20886  -0.22320
O          O       0.49473   0.61408   0.22363  -0.23919
O          O       0.53990   0.54445   0.10279  -0.20967
O          O       0.46681   0.53880   0.47707  -0.22108
O          O       0.48203   0.40072   0.16279  -0.23121
O          O       0.54210   0.46603   0.34076  -0.20614
O          O       0.05202   0.97409   0.33575  -0.20244
O          O       0.95497   0.90173   0.06648  -0.19400
O          O       0.04424   0.05868   0.10878  -0.18982
O          O       0.96547   0.96548   0.33354  -0.22513
O          O       0.00635   0.87559   0.09080  -0.22467
O          O       0.98949   0.02834   0.06667  -0.22577
O          O       0.45053   0.47279   0.71627  -0.22667
O          O       0.49463   0.60880   0.71794  -0.23153
O          O       0.54160   0.54983   0.63018  -0.20328
O          O       0.46882   0.53002   0.97527  -0.20495
O          O       0.48314   0.39494   0.64895  -0.23180
O          O       0.54408   0.45957   0.81758  -0.21157
O          O       0.05179   0.97255   0.83454  -0.20157
O          O       0.95563   0.90374   0.56476  -0.19472
O          O       0.04513   0.06144   0.60477  -0.18956
O          O       0.96625   0.96699   0.83004  -0.22980
O          O       0.00717   0.87433   0.58108  -0.22581
O          O       0.99062   0.03064   0.56509  -0.22297

