data_crystal

_audit_creation_method 'AiiDA-DDEC plugin'

_cell_length_a        50.59774
_cell_length_b        51.14467
_cell_length_c        18.29722

_cell_angle_alpha     145.52588
_cell_angle_beta     87.01534
_cell_angle_gamma     91.18057

_symmetry_space_group_name_Hall 'P 1'
_symmetry_space_group_name_H-M  'P 1'

loop_
_symmetry_equiv_pos_as_xyz
 'x,y,z'

loop_
_atom_site_label
_atom_site_type_symbol
_atom_site_fract_x
_atom_site_fract_y
_atom_site_fract_z
_atom_site_charge
H          H       0.21391   0.07623   0.17170   0.11911
H          H       0.24161   0.10452   0.13275   0.12117
H          H       0.18559   0.21804   0.36568   0.10696
H          H       0.15779   0.18992   0.40563   0.10526
H          H       0.11791   0.05447   0.31138   0.10271
H          H       0.07526   0.18985   0.47164   0.10606
H          H       0.05129   0.16564   0.53027   0.11781
H          H       0.10455   0.16948   0.31483   0.10452
H          H       0.13857   0.03176   0.47255   0.10206
H          H       0.11563   0.00846   0.03612   0.11455
H          H       0.01692   0.02464   0.29970   0.09006
H          H       0.98866   0.06297   0.40175   0.06537
H          H       0.02536   0.11005   0.53061   0.08265
H          H       0.01832   0.12313   0.46823   0.07489
H          H       0.17356   0.07711   0.03265   0.10522
H          H       0.19450   0.09594   0.45565   0.11657
H          H       0.12531   0.17313   0.07540   0.10297
H          H       0.10344   0.15437   0.15204   0.10580
H          H       0.17161   0.18209   0.02876   0.10699
H          H       0.19725   0.14179   0.45470   0.11112
H          H       0.14630   0.12588   0.33876   0.09787
H          H       0.28856   0.87605   0.17785   0.12079
H          H       0.26745   0.90925   0.14640   0.11833
H          H       0.21182   0.79386   0.38434   0.10949
H          H       0.23259   0.76232   0.42183   0.10489
H          H       0.72315   0.42038   0.52123   0.12164
H          H       0.74899   0.39587   0.07539   0.11142
H          H       0.68422   0.30896   0.44153   0.10357
H          H       0.66003   0.33247   0.38714   0.10398
H          H       0.72148   0.66700   0.46864   0.11596
H          H       0.74497   0.69127   0.41071   0.11184
H          H       0.67203   0.75205   0.47627   0.10069
H          H       0.65147   0.72389   0.03199   0.10567
H          H       0.22474   0.22104   0.14189   0.11382
H          H       0.19820   0.19458   0.18956   0.10247
H          H       0.26945   0.16879   0.24443   0.11712
H          H       0.29603   0.19538   0.19711   0.11043
H          H       0.46332   0.44442   0.32925   0.08573
H          H       0.46336   0.40592   0.31649   0.08762
H          H       0.50819   0.40677   0.26650   0.06535
H          H       0.50659   0.43512   0.41856   0.07134
H          H       0.49367   0.49044   0.21490   0.06756
H          H       0.49378   0.51775   0.19069   0.09044
H          H       0.47757   0.59262   0.43597   0.09671
H          H       0.46624   0.55443   0.41756   0.06033
H          H       0.57499   0.40891   0.37587   0.11883
H          H       0.59452   0.37288   0.40266   0.10291
H          H       0.61682   0.38159   0.03320   0.09793
H          H       0.65291   0.50961   0.37509   0.10156
H          H       0.63252   0.54661   0.35559   0.11973
H          H       0.58463   0.68872   0.05119   0.10428
H          H       0.56583   0.65220   0.07813   0.11879
H          H       0.60970   0.68606   0.42720   0.09974
H          H       0.65073   0.55848   0.06975   0.10053
H          H       0.63212   0.51983   0.08999   0.11821
H          H       0.47049   0.51968   0.48406   0.11699
H          H       0.44012   0.58584   0.08772   0.10564
H          H       0.39858   0.63242   0.20297   0.11435
H          H       0.34555   0.62346   0.37264   0.10864
H          H       0.37492   0.56366   0.28722   0.11563
H          H       0.40637   0.45075   0.23159   0.11385
H          H       0.44085   0.50632   0.33487   0.10677
H          H       0.36926   0.40619   0.08774   0.10844
H          H       0.34901   0.41264   0.37155   0.10500
H          H       0.38359   0.46907   0.47694   0.10962
H          H       0.53404   0.50998   0.33226   0.07517
H          H       0.51053   0.55618   0.46020   0.06768
H          H       0.55241   0.57741   0.03557   0.09127
H          H       0.54201   0.61284   0.53820   0.07646
H          H       0.54453   0.50582   0.45022   0.08637
H          H       0.54825   0.44773   0.34559   0.06578
H          H       0.53693   0.47686   0.04520   0.06731
H          H       0.53552   0.53383   0.14139   0.09043
H          H       0.31609   0.63405   0.30498   0.10580
H          H       0.28571   0.68653   0.36112   0.10516
H          H       0.35214   0.76014   0.44155   0.11283
H          H       0.38257   0.70763   0.38578   0.10766
H          H       0.33774   0.33774   0.22631   0.10866
H          H       0.30066   0.28644   0.13637   0.11527
H          H       0.28870   0.34849   0.49256   0.10972
H          H       0.32458   0.40300   0.09595   0.10901
H          H       0.61479   0.37827   0.15177   0.09850
H          H       0.63555   0.34251   0.17614   0.09860
H          H       0.70287   0.42670   0.33264   0.10640
H          H       0.68287   0.46101   0.30350   0.11028
H          H       0.68026   0.61209   0.15420   0.11426
H          H       0.69878   0.64663   0.11989   0.10741
H          H       0.62514   0.72175   0.26535   0.09911
H          H       0.60632   0.68695   0.29931   0.09978
H          H       0.31076   0.77774   0.43749   0.11427
H          H       0.28749   0.73421   0.33974   0.11281
H          H       0.26473   0.76823   0.53008   0.10327
H          H       0.25901   0.29525   0.33564   0.11028
H          H       0.25500   0.28325   0.21488   0.11396
H          H       0.29943   0.23045   0.16533   0.10609
H          H       0.66466   0.73703   0.21910   0.10361
H          H       0.69577   0.71106   0.17855   0.10139
H          H       0.65094   0.66549   0.99612   0.09888
H          H       0.67793   0.32722   0.20852   0.10587
H          H       0.70513   0.36266   0.27142   0.10262
H          H       0.65348   0.38806   0.41902   0.09487
H          H       0.77474   0.38357   0.27627   0.11715
H          H       0.74855   0.40564   0.22144   0.11456
H          H       0.71953   0.26647   0.38483   0.10720
H          H       0.74603   0.24286   0.43484   0.10604
H          H       0.97464   0.10271   0.37241   0.06567
H          H       0.95866   0.05224   0.28799   0.05635
H          H       0.98509   0.06795   0.17131   0.09376
H          H       0.95025   0.06920   0.19691   0.07388
H          H       0.88523   0.11479   0.09824   0.10838
H          H       0.86786   0.11379   0.32873   0.10736
H          H       0.89585   0.04279   0.17640   0.10601
H          H       0.84156   0.13979   0.16171   0.10623
H          H       0.81600   0.21296   0.31063   0.11137
H          H       0.84310   0.26974   0.14607   0.11596
H          H       0.86797   0.19381   0.48771   0.10713
H          H       0.82292   0.32250   0.17042   0.11666
H          H       0.80960   0.29677   0.03470   0.11578
H          H       0.77795   0.26121   0.06852   0.10445
H          H       0.25169   0.91035   0.40552   0.11376
H          H       0.26744   0.87593   0.43985   0.11215
H          H       0.18921   0.85982   0.97972   0.10376
H          H       0.17095   0.89616   0.45379   0.11109
H          H       0.04653   0.91317   0.38390   0.12158
H          H       0.07154   0.88417   0.42059   0.10729
H          H       0.10438   0.89493   0.03685   0.10428
H          H       0.14587   0.02190   0.32935   0.09326
H          H       0.01664   0.96334   0.46349   0.07793
H          H       0.01537   0.00721   0.99434   0.08003
H          H       0.11251   0.90199   0.17909   0.10275
H          H       0.14115   0.87403   0.21233   0.10361
H          H       0.20632   0.94616   0.27896   0.11440
H          H       0.17798   0.97381   0.24527   0.11332
H          H       0.18316   0.86271   0.23390   0.10590
H          H       0.21192   0.87440   0.20629   0.09975
H          H       0.18141   0.94832   0.47180   0.11574
H          H       0.72716   0.81669   0.44963   0.10411
H          H       0.70574   0.79691   0.02735   0.10787
H          H       0.74686   0.66900   0.23632   0.11782
H          H       0.77119   0.68693   0.16093   0.11697
H          H       0.96230   0.93023   0.14500   0.06822
H          H       0.97181   0.88663   0.10721   0.10739
H          H       0.99226   0.98267   0.34555   0.06958
H          H       0.00748   0.94558   0.19070   0.06289
H          H       0.94224   0.98678   0.25856   0.10960
H          H       0.91376   0.05662   0.41067   0.10900
H          H       0.94548   0.90655   0.00122   0.10240
H          H       0.97800   0.95974   0.06165   0.12711
H          H       0.90013   0.87702   0.44602   0.11562
H          H       0.84362   0.91146   0.36443   0.10868
H          H       0.87617   0.95946   0.40874   0.11523
H          H       0.04443   0.95571   0.29166   0.07663
H          H       0.04655   0.91248   0.26043   0.08228
H          H       0.81828   0.91005   0.97135   0.10560
H          H       0.78495   0.87017   0.45924   0.10513
H          H       0.84526   0.76620   0.26202   0.11475
H          H       0.87755   0.80835   0.28072   0.10906
H          H       0.80473   0.76469   0.32696   0.11476
H          H       0.78586   0.81676   0.45814   0.11467
H          H       0.75883   0.79584   0.30420   0.10258
H          H       0.21297   0.07509   0.66798   0.12349
H          H       0.24043   0.10474   0.63262   0.11801
H          H       0.18373   0.21750   0.86641   0.10702
H          H       0.15620   0.18808   0.90289   0.10598
H          H       0.11646   0.05650   0.81964   0.10202
H          H       0.07324   0.18869   0.96404   0.10564
H          H       0.05092   0.16530   0.02716   0.11856
H          H       0.10237   0.16868   0.80777   0.10423
H          H       0.14069   0.03229   0.98022   0.10208
H          H       0.11436   0.00771   0.52910   0.11362
H          H       0.01959   0.02170   0.78998   0.09055
H          H       0.99060   0.05797   0.89081   0.06348
H          H       0.02530   0.10854   0.02675   0.08275
H          H       0.01881   0.12053   0.96116   0.07401
H          H       0.17186   0.07774   0.53259   0.10592
H          H       0.19490   0.09401   0.95056   0.11722
H          H       0.12503   0.17319   0.57049   0.10158
H          H       0.10191   0.15331   0.64250   0.10532
H          H       0.17237   0.18387   0.53248   0.10825
H          H       0.19684   0.14042   0.95052   0.11044
H          H       0.14537   0.12390   0.83594   0.09964
H          H       0.28729   0.87251   0.66748   0.12105
H          H       0.26655   0.90382   0.62962   0.11880
H          H       0.21521   0.79570   0.88329   0.10882
H          H       0.23623   0.76255   0.91530   0.10500
H          H       0.72433   0.42111   0.02697   0.12121
H          H       0.74828   0.39452   0.56699   0.11600
H          H       0.68530   0.30876   0.94312   0.10321
H          H       0.66151   0.33182   0.88681   0.10492
H          H       0.72372   0.65355   0.92870   0.12164
H          H       0.74632   0.68107   0.87919   0.11491
H          H       0.67355   0.74927   0.97476   0.10003
H          H       0.64903   0.73027   0.54261   0.10443
H          H       0.22290   0.22689   0.65959   0.11301
H          H       0.19652   0.19751   0.69863   0.10293
H          H       0.26789   0.16816   0.74307   0.11679
H          H       0.29434   0.19729   0.70319   0.11013
H          H       0.46188   0.44683   0.83417   0.08702
H          H       0.46116   0.40784   0.81943   0.08647
H          H       0.50637   0.40566   0.76343   0.06537
H          H       0.50547   0.43543   0.91745   0.06945
H          H       0.49229   0.49678   0.71156   0.06743
H          H       0.49152   0.53183   0.71261   0.09386
H          H       0.47326   0.59863   0.95130   0.09638
H          H       0.46498   0.55574   0.91835   0.06132
H          H       0.57081   0.41237   0.88672   0.11682
H          H       0.59085   0.37531   0.90920   0.10343
H          H       0.61917   0.38079   0.53289   0.09782
H          H       0.65333   0.51045   0.87904   0.10433
H          H       0.63192   0.54685   0.85906   0.11766
H          H       0.58549   0.69157   0.56042   0.10333
H          H       0.56789   0.65467   0.58783   0.11786
H          H       0.61010   0.68284   0.91928   0.09828
H          H       0.65250   0.55548   0.56692   0.10191
H          H       0.63397   0.51792   0.59034   0.11850
H          H       0.46899   0.52210   0.98947   0.11770
H          H       0.44189   0.58292   0.57812   0.10160
H          H       0.40063   0.62938   0.68992   0.11485
H          H       0.34699   0.62441   0.86847   0.10912
H          H       0.37569   0.56429   0.78458   0.11556
H          H       0.40373   0.45279   0.73450   0.11208
H          H       0.43654   0.51211   0.84983   0.10803
H          H       0.36888   0.40488   0.57936   0.10825
H          H       0.34756   0.41522   0.88469   0.10552
H          H       0.38241   0.47080   0.98587   0.10969
H          H       0.53083   0.51010   0.81957   0.07516
H          H       0.50887   0.55660   0.95760   0.06621
H          H       0.55332   0.58335   0.54926   0.08912
H          H       0.54255   0.61293   0.04335   0.07841
H          H       0.54412   0.50421   0.94554   0.08737
H          H       0.54770   0.44674   0.84548   0.06782
H          H       0.53911   0.47557   0.54219   0.06675
H          H       0.53890   0.53326   0.64295   0.08748
H          H       0.31806   0.63204   0.78844   0.10635
H          H       0.28816   0.68632   0.85016   0.10369
H          H       0.35511   0.76213   0.94522   0.11258
H          H       0.38509   0.70772   0.88347   0.10799
H          H       0.33697   0.34099   0.73982   0.10873
H          H       0.29895   0.29138   0.65160   0.11575
H          H       0.28726   0.35209   0.00579   0.10960
H          H       0.32493   0.40119   0.58462   0.10744
H          H       0.61623   0.37921   0.65603   0.09840
H          H       0.63676   0.34396   0.68229   0.09860
H          H       0.70442   0.42733   0.83593   0.10756
H          H       0.68454   0.46124   0.80529   0.11180
H          H       0.68024   0.60593   0.63431   0.11209
H          H       0.69847   0.64368   0.60989   0.10752
H          H       0.62597   0.72441   0.78045   0.09928
H          H       0.60724   0.68567   0.80175   0.10129
H          H       0.31399   0.78086   0.94204   0.11433
H          H       0.29081   0.73725   0.84056   0.11273
H          H       0.26758   0.76858   0.02634   0.10324
H          H       0.25672   0.30049   0.85042   0.11096
H          H       0.25341   0.28755   0.72742   0.11325
H          H       0.29761   0.23693   0.68712   0.10558
H          H       0.66701   0.74367   0.74806   0.10499
H          H       0.69667   0.71046   0.68146   0.10179
H          H       0.64746   0.68254   0.53849   0.09550
H          H       0.67847   0.32836   0.71405   0.10594
H          H       0.70618   0.36260   0.77406   0.10416
H          H       0.65483   0.39066   0.92791   0.09619
H          H       0.77583   0.37970   0.76046   0.11660
H          H       0.74931   0.40324   0.71047   0.11485
H          H       0.72045   0.26768   0.89335   0.10775
H          H       0.74665   0.24550   0.94798   0.10571
H          H       0.97612   0.10044   0.86870   0.06674
H          H       0.96006   0.05008   0.78468   0.05629
H          H       0.98546   0.06600   0.66743   0.09431
H          H       0.95080   0.06826   0.69742   0.07325
H          H       0.88426   0.11674   0.60636   0.10865
H          H       0.86653   0.11549   0.83590   0.10737
H          H       0.89424   0.04422   0.68325   0.10821
H          H       0.83930   0.14185   0.67213   0.10623
H          H       0.81404   0.21557   0.82348   0.11201
H          H       0.84175   0.26634   0.63600   0.11616
H          H       0.86881   0.19648   0.99527   0.10684
H          H       0.82255   0.31943   0.65879   0.11656
H          H       0.80989   0.29337   0.52164   0.11531
H          H       0.77775   0.25685   0.55047   0.10431
H          H       0.25309   0.92190   0.93608   0.11773
H          H       0.26928   0.88731   0.96936   0.11356
H          H       0.18672   0.86150   0.48800   0.10242
H          H       0.17301   0.89449   0.94621   0.11340
H          H       0.04503   0.91473   0.88834   0.12079
H          H       0.07007   0.88463   0.92180   0.10755
H          H       0.10578   0.89510   0.53590   0.10415
H          H       0.14431   0.02493   0.84059   0.09090
H          H       0.01586   0.96341   0.95990   0.07838
H          H       0.01557   0.00600   0.49361   0.08002
H          H       0.11413   0.90030   0.67358   0.10296
H          H       0.14316   0.87342   0.70896   0.10425
H          H       0.20631   0.95246   0.79601   0.11468
H          H       0.17760   0.97887   0.75957   0.11359
H          H       0.18484   0.86632   0.74299   0.10436
H          H       0.21332   0.87849   0.71588   0.09925
H          H       0.18239   0.95171   0.98024   0.11665
H          H       0.73046   0.81795   0.96115   0.10469
H          H       0.70283   0.79870   0.52485   0.10821
H          H       0.74691   0.66414   0.71817   0.11637
H          H       0.77172   0.68513   0.65216   0.11939
H          H       0.96425   0.92891   0.63954   0.06464
H          H       0.97439   0.88608   0.60421   0.10843
H          H       0.99193   0.98317   0.84965   0.07086
H          H       0.00789   0.95027   0.70038   0.06115
H          H       0.94257   0.98354   0.74768   0.10850
H          H       0.91445   0.05373   0.89995   0.10899
H          H       0.94471   0.90471   0.49696   0.10399
H          H       0.97778   0.95636   0.55295   0.12678
H          H       0.90124   0.87741   0.94600   0.11605
H          H       0.84517   0.90837   0.85360   0.10981
H          H       0.87764   0.95612   0.89662   0.11524
H          H       0.04579   0.95959   0.79941   0.07673
H          H       0.04845   0.91590   0.76618   0.08412
H          H       0.81714   0.91207   0.47721   0.10473
H          H       0.78665   0.86827   0.95546   0.10529
H          H       0.84747   0.76522   0.75959   0.11454
H          H       0.87925   0.80712   0.77586   0.10929
H          H       0.80696   0.76270   0.82237   0.11537
H          H       0.78889   0.81539   0.95780   0.11462
H          H       0.76061   0.79738   0.81198   0.10252
C          C       0.26448   0.81612   0.04531   0.06289
C          C       0.26227   0.21022   0.16681   0.06371
C          C       0.68992   0.37789   0.44974   0.07728
C          C       0.27266   0.85805   0.11212  -0.14164
C          C       0.26087   0.87660   0.09362  -0.12129
C          C       0.24064   0.85380   0.00752   0.06819
C          C       0.22834   0.81117   0.44647  -0.13165
C          C       0.24006   0.79344   0.46768  -0.15098
C          C       0.71472   0.39546   0.50208  -0.13621
C          C       0.72955   0.38249   0.03696  -0.11615
C          C       0.71889   0.35074   0.01428   0.05089
C          C       0.69328   0.33216   0.45509  -0.13099
C          C       0.67948   0.34584   0.42575  -0.14824
C          C       0.68595   0.68661   0.98334   0.07850
C          C       0.71066   0.68630   0.47233  -0.13459
C          C       0.72383   0.69932   0.43725  -0.13148
C          C       0.71014   0.72297   0.43712   0.05067
C          C       0.68321   0.73505   0.47932  -0.12716
C          C       0.67235   0.71491  -0.00023  -0.14871
C          C       0.23460   0.20981   0.16484  -0.14879
C          C       0.21965   0.19510   0.19212  -0.13767
C          C       0.23188   0.17956   0.21967   0.06387
C          C       0.25965   0.17942   0.21967  -0.12220
C          C       0.27456   0.19481   0.19415  -0.14559
C          C       0.47039   0.43919   0.37240  -0.00578
C          C       0.50036   0.43789   0.36837  -0.02299
C          C       0.49483   0.52396   0.26394  -0.02622
C          C       0.47156   0.55718   0.36519  -0.01479
C          C       0.60842   0.43797   0.08953   0.06155
C          C       0.61212   0.48592   0.18405   0.04439
C          C       0.59889   0.50755   0.17502  -0.05199
C          C       0.58446   0.48040   0.06746   0.19760
C          C       0.58512   0.42952   0.46212  -0.21074
C          C       0.59328   0.41188   0.98215  -0.13730
C          C       0.61994   0.41793   0.10542  -0.20777
C          C       0.63549   0.44305   0.20797   0.06503
C          C       0.64020   0.48976   0.29631  -0.12505
C          C       0.62874   0.51072   0.28595  -0.10235
C          C       0.59766   0.55859   0.28323  -0.06915
C          C       0.60948   0.58045   0.27091   0.04820
C          C       0.60407   0.62880   0.36974   0.05694
C          C       0.58888   0.65461   0.48346  -0.13094
C          C       0.57885   0.63380   0.49822  -0.21833
C          C       0.58268   0.58548   0.39689   0.20727
C          C       0.61434   0.64956   0.35245  -0.20869
C          C       0.63073   0.62484   0.24509   0.05972
C          C       0.63730   0.57774   0.15227  -0.12655
C          C       0.62681   0.55596   0.16315  -0.10358
C          C       0.41070   0.58339   0.17189   0.06459
C          C       0.40391   0.56241   0.19289   0.04031
C          C       0.42070   0.52620   0.13683  -0.06633
C          C       0.44313   0.51137   0.06038   0.19811
C          C       0.45039   0.53310   0.04333  -0.21772
C          C       0.43452   0.56848   0.09869  -0.12601
C          C       0.39351   0.61795   0.22321  -0.19004
C          C       0.36995   0.63215   0.29301   0.05917
C          C       0.36363   0.61177   0.31524  -0.13454
C          C       0.38009   0.57841   0.26798  -0.13375
C          C       0.41566   0.50506   0.16150  -0.07496
C          C       0.39590   0.47191   0.09878   0.03993
C          C       0.39207   0.45239   0.12569   0.05998
C          C       0.40895   0.46556   0.21124  -0.11970
C          C       0.42838   0.49692   0.26951  -0.21789
C          C       0.43149   0.51737   0.24656   0.20838
C          C       0.37183   0.42059   0.06616  -0.18786
C          C       0.35608   0.40503   0.46957   0.05385
C          C       0.36113   0.42317   0.43981  -0.13638
C          C       0.38040   0.45487   0.49886  -0.13916
C          C       0.52724   0.54492   0.39626  -0.02295
C          C       0.54893   0.57929   0.48202  -0.00670
C          C       0.53826   0.48136   0.43662  -0.01501
C          C       0.54424   0.49886   0.05096  -0.01840
C          C       0.64730   0.42218   0.22482   0.06496
C          C       0.64172   0.64629   0.22702   0.06381
C          C       0.35168   0.66627   0.33849   0.05965
C          C       0.33436   0.37323   0.41224   0.05853
C          C       0.32406   0.66203   0.33645  -0.13554
C          C       0.30693   0.69166   0.36777  -0.15128
C          C       0.31674   0.72680   0.40331   0.10304
C          C       0.34417   0.73241   0.41124  -0.14284
C          C       0.36135   0.70267   0.37914  -0.13217
C          C       0.32688   0.34061   0.28573  -0.13838
C          C       0.30604   0.31141   0.23456  -0.15055
C          C       0.29198   0.31366   0.30792   0.10154
C          C       0.29950   0.34595   0.43372  -0.15513
C          C       0.32012   0.37536   0.48526  -0.13596
C          C       0.63442   0.38825   0.18874  -0.14157
C          C       0.64611   0.36819   0.20295  -0.15283
C          C       0.67103   0.38142   0.25411   0.09998
C          C       0.68368   0.41563   0.29147  -0.12444
C          C       0.67215   0.43558   0.27710  -0.12146
C          C       0.66788   0.63531   0.17609  -0.12201
C          C       0.67847   0.65528   0.15857  -0.12544
C          C       0.66331   0.68647   0.18961   0.09756
C          C       0.63730   0.69790   0.24166  -0.15495
C          C       0.62668   0.67830   0.26072  -0.14442
C          C       0.29883   0.75627   0.42537  -0.22923
C          C       0.28061   0.79035   0.04224  -0.03541
C          C       0.29303   0.82158   0.16364   0.25442
C          C       0.26950   0.28257   0.25595  -0.22841
C          C       0.27864   0.23087   0.15114  -0.02909
C          C       0.27815   0.20377   0.02132   0.24890
C          C       0.67467   0.70436   0.15909  -0.22605
C          C       0.67212   0.66946   0.01393  -0.03601
C          C       0.67567   0.63092   0.43797   0.24137
C          C       0.68343   0.36290   0.27922  -0.22775
C          C       0.67476   0.39255   0.41726  -0.03723
C          C       0.68050   0.44228   0.01841   0.24085
C          C       0.76315   0.31257   0.11365   0.06394
C          C       0.75143   0.75372   0.30265   0.06273
C          C       0.21021   0.90610   0.42851   0.07973
C          C       0.76303   0.35795   0.19155  -0.14201
C          C       0.74837   0.37030   0.16018  -0.12355
C          C       0.73315   0.33795   0.05074   0.07010
C          C       0.73165   0.29155   0.46800  -0.12806
C          C       0.74668   0.27817   0.49597  -0.15449
C          C       0.23736   0.89977   0.42373  -0.14237
C          C       0.24625   0.88077   0.44464  -0.12967
C          C       0.22824   0.86709   0.46936   0.04775
C          C       0.20102   0.87129   0.46741  -0.12983
C          C       0.19214   0.89100   0.44851  -0.14682
C          C       0.18393   0.13142   0.29231   0.07112
C          C       0.20767   0.10764   0.21576  -0.13477
C          C       0.22339   0.12369   0.19381  -0.11594
C          C       0.21572   0.16347   0.24663   0.05672
C          C       0.19184   0.18705   0.32335  -0.13187
C          C       0.17625   0.17132   0.34618  -0.14823
C          C       0.73154   0.78426   0.40274  -0.15203
C          C       0.71781   0.77411   0.44515  -0.13001
C          C       0.72368   0.73325   0.38944   0.06803
C          C       0.74281   0.70180   0.28487  -0.11943
C          C       0.75645   0.71179   0.24192  -0.13958
C          C       0.96939   0.92409   0.18574  -0.00857
C          C       0.99585   0.94625   0.24515  -0.01875
C          C       0.97470   0.06464   0.27924  -0.02811
C          C       0.96959   0.05359   0.17469  -0.00891
C          C       0.09166   0.94689   0.07944   0.05745
C          C       0.09497   0.99326   0.16033   0.04299
C          C       0.07924   0.01125   0.14558  -0.07436
C          C       0.06235   0.98233   0.04443   0.20666
C          C       0.06009   0.93553   0.46114  -0.22984
C          C       0.07411   0.91928   0.48181  -0.13012
C          C       0.10729   0.92988   0.09740  -0.20148
C          C       0.12656   0.95637   0.18737   0.05435
C          C       0.13042   0.00122   0.26132  -0.12818
C          C       0.11479   0.01967   0.25123  -0.11441
C          C       0.07987   0.06068   0.23769  -0.05333
C          C       0.09516   0.07485   0.20744   0.03947
C          C       0.09287   0.12173   0.29028   0.05760
C          C       0.07665   0.15401   0.40690  -0.13480
C          C       0.06301   0.14047   0.43896  -0.22184
C          C       0.06427   0.09355   0.35325   0.20052
C          C       0.10680   0.13408   0.25284  -0.20578
C          C       0.12342   0.10241   0.14094   0.06251
C          C       0.12700   0.05706   0.06535  -0.12445
C          C       0.11297   0.04348   0.09620  -0.11629
C          C       0.90330   0.05807   0.02573   0.05772
C          C       0.90655   0.03677   0.04666   0.03967
C          C       0.92195   0.99775   0.46527  -0.08276
C          C       0.93516   0.97935   0.35960   0.20805
C          C       0.93228   0.00111   0.34097  -0.21925
C          C       0.91614   0.04035   0.42618  -0.11991
C          C       0.88702   0.09876   0.11474  -0.18619
C          C       0.87409   0.11920   0.22319   0.05505
C          C       0.87791   0.09835   0.24455  -0.13733
C          C       0.89348   0.05851   0.15924  -0.14473
C          C       0.92656   0.97457   0.48284  -0.06008
C          C       0.90722   0.94659   0.45460   0.03803
C          C       0.91395   0.92176   0.46220   0.06940
C          C       0.93971   0.92503   0.49602  -0.13027
C          C       0.95846   0.95480   0.03006  -0.19391
C          C       0.95170   0.97865   0.02067   0.19889
C          C       0.89486   0.89445   0.43598  -0.18749
C          C       0.86957   0.89089   0.40294   0.06094
C          C       0.86318   0.91503   0.39362  -0.13377
C          C       0.88140   0.94173   0.41779  -0.13326
C          C       0.00653   0.05523   0.34824  -0.02520
C          C       0.02502   0.09565   0.44187  -0.01534
C          C       0.03387   0.94077   0.30528  -0.02369
C          C       0.02785   0.97756   0.44924  -0.01914
C          C       0.14310   0.93983   0.20885   0.05945
C          C       0.13685   0.11441   0.09807   0.06062
C          C       0.85717   0.16155   0.31326   0.05732
C          C       0.84982   0.86365   0.38183   0.05891
C          C       0.84196   0.16770   0.26567  -0.13807
C          C       0.82738   0.20872   0.34948  -0.15321
C          C       0.82728   0.24513   0.48403   0.10299
C          C       0.84215   0.24165   0.04210  -0.14951
C          C       0.85631   0.19748   0.44803  -0.13684
C          C       0.82325   0.87972   0.42825  -0.13526
C          C       0.80515   0.85605   0.41825  -0.15259
C          C       0.81282   0.81525   0.36023   0.10449
C          C       0.83904   0.79823   0.30941  -0.14284
C          C       0.85727   0.82207   0.32043  -0.13084
C          C       0.13316   0.91131   0.19952  -0.14271
C          C       0.14931   0.89573   0.21882  -0.15089
C          C       0.17591   0.90768   0.24709   0.10658
C          C       0.18571   0.93674   0.25856  -0.13493
C          C       0.16958   0.95274   0.24067  -0.12835
C          C       0.16269   0.09737   0.03983  -0.11936
C          C       0.17421   0.10864   0.49694  -0.13282
C          C       0.16176   0.13501   0.00782   0.09903
C          C       0.13600   0.15218   0.06622  -0.15126
C          C       0.12371   0.14195   0.11036  -0.13353
C          C       0.81191   0.29287   0.08467  -0.22914
C          C       0.78306   0.29605   0.13027  -0.02894
C          C       0.78314   0.32524   0.26257   0.24600
C          C       0.79402   0.79173   0.35925  -0.22976
C          C       0.76950   0.76946   0.27530  -0.03430
C          C       0.77780   0.73192   0.13830   0.25267
C          C       0.17582   0.14743   0.46331  -0.23008
C          C       0.16743   0.11813   0.32962  -0.04195
C          C       0.16965   0.06917   0.23516   0.26940
C          C       0.19320   0.88994   0.26556  -0.22461
C          C       0.19970   0.92779   0.40946  -0.04990
C          C       0.21791   0.96072   0.45220   0.27912
C          C       0.26193   0.81435   0.54384   0.06260
C          C       0.26053   0.21443   0.67965   0.06383
C          C       0.69120   0.37826   0.95348   0.07722
C          C       0.27092   0.85488   0.60429  -0.14222
C          C       0.25931   0.87240   0.58248  -0.12201
C          C       0.23840   0.85005   0.49987   0.06926
C          C       0.23130   0.81340   0.94780  -0.13110
C          C       0.24315   0.79473   0.96597  -0.15152
C          C       0.71587   0.39608   0.00729  -0.13690
C          C       0.72865   0.38161   0.53065  -0.12255
C          C       0.71809   0.35000   0.50872   0.05064
C          C       0.69436   0.33224   0.95784  -0.13128
C          C       0.68076   0.34573   0.92759  -0.14718
C          C       0.68353   0.69677   0.50917   0.07785
C          C       0.71275   0.67504   0.94048  -0.14003
C          C       0.72538   0.68997   0.91026  -0.13160
C          C       0.71157   0.71685   0.92151   0.04828
C          C       0.68494   0.72976   0.96901  -0.12779
C          C       0.67013   0.72220   0.51512  -0.14783
C          C       0.23285   0.21422   0.67828  -0.14740
C          C       0.21797   0.19790   0.70086  -0.13858
C          C       0.23023   0.18056   0.72315   0.06293
C          C       0.25802   0.18015   0.72227  -0.12073
C          C       0.27286   0.19703   0.70117  -0.14602
C          C       0.46906   0.44063   0.87480  -0.00705
C          C       0.49905   0.43755   0.86580  -0.01951
C          C       0.49269   0.53264   0.77419  -0.02471
C          C       0.46891   0.56204   0.87424  -0.01695
C          C       0.61000   0.43678   0.58825   0.06185
C          C       0.61276   0.48501   0.68416   0.04411
C          C       0.59968   0.50573   0.67211  -0.04916
C          C       0.58663   0.47766   0.56057   0.19650
C          C       0.58196   0.43243   0.97011  -0.21213
C          C       0.59609   0.40970   0.47693  -0.13867
C          C       0.62166   0.41733   0.60577  -0.20710
C          C       0.63682   0.44318   0.71008   0.06750
C          C       0.64076   0.49018   0.79944  -0.12585
C          C       0.62878   0.51072   0.78860  -0.10158
C          C       0.59780   0.55656   0.77941  -0.07289
C          C       0.61010   0.57811   0.76687   0.04554
C          C       0.60431   0.62612   0.86351   0.05610
C          C       0.58827   0.65192   0.97546  -0.12952
C          C       0.57763   0.63132   0.99021  -0.21804
C          C       0.58185   0.58321   0.89077   0.20909
C          C       0.61489   0.64646   0.84542  -0.20648
C          C       0.63163   0.62159   0.73863   0.05867
C          C       0.63868   0.57494   0.64857  -0.12638
C          C       0.62817   0.55364   0.66098  -0.10574
C          C       0.41212   0.58153   0.66365   0.06363
C          C       0.40490   0.56150   0.68713   0.04269
C          C       0.42121   0.52514   0.63184  -0.06628
C          C       0.44381   0.50958   0.55506   0.19703
C          C       0.45168   0.53080   0.53692  -0.22008
C          C       0.43606   0.56602   0.59037  -0.12331
C          C       0.39523   0.61594   0.71302  -0.18991
C          C       0.37171   0.63108   0.78424   0.05761
C          C       0.36503   0.61178   0.80958  -0.13448
C          C       0.38111   0.57836   0.76341  -0.13356
C          C       0.41530   0.50483   0.65846  -0.07452
C          C       0.39597   0.47086   0.59240   0.04088
C          C       0.39157   0.45184   0.62050   0.06015
C          C       0.40705   0.46704   0.71268  -0.11883
C          C       0.42558   0.50024   0.77704  -0.21583
C          C       0.42947   0.51962   0.75104   0.20725
C          C       0.37170   0.41923   0.55769  -0.18752
C          C       0.35558   0.40714   0.98077   0.05439
C          C       0.36020   0.42539   0.95118  -0.13805
C          C       0.37955   0.45673   0.00826  -0.13878
C          C       0.52507   0.54665   0.89431  -0.02191
C          C       0.54803   0.57747   0.97747  -0.00593
C          C       0.53732   0.48042   0.93387  -0.01855
C          C       0.54655   0.49786   0.54916  -0.01573
C          C       0.64885   0.42268   0.72781   0.06267
C          C       0.64235   0.64310   0.72041   0.06460
C          C       0.35382   0.66547   0.82964   0.06195
C          C       0.33362   0.37591   0.92481   0.05879
C          C       0.32620   0.66092   0.82444  -0.13623
C          C       0.30939   0.69149   0.85872  -0.15109
C          C       0.31952   0.72788   0.90039   0.10297
C          C       0.34695   0.73349   0.91034  -0.14360
C          C       0.36386   0.70275   0.87508  -0.13273
C          C       0.32584   0.34404   0.79928  -0.13826
C          C       0.30448   0.31583   0.74917  -0.14982
C          C       0.29020   0.31831   0.82274   0.10046
C          C       0.29813   0.34961   0.94720  -0.15500
C          C       0.31933   0.37803   0.99771  -0.13863
C          C       0.63585   0.38909   0.69287  -0.14006
C          C       0.64741   0.36937   0.70826  -0.15321
C          C       0.67233   0.38257   0.75936   0.10255
C          C       0.68518   0.41634   0.79516  -0.12565
C          C       0.67374   0.43605   0.77982  -0.12061
C          C       0.66802   0.63123   0.66433  -0.12070
C          C       0.67847   0.65300   0.65231  -0.12391
C          C       0.66377   0.68726   0.69519   0.09896
C          C       0.63799   0.69867   0.74919  -0.15384
C          C       0.62744   0.67696   0.76155  -0.14523
C          C       0.30189   0.75855   0.92621  -0.22776
C          C       0.27788   0.78916   0.54305  -0.03532
C          C       0.29086   0.82076   0.66346   0.25362
C          C       0.26756   0.28749   0.77076  -0.22833
C          C       0.27711   0.23624   0.66819  -0.02966
C          C       0.27811   0.20931   0.53828   0.24991
C          C       0.67511   0.70837   0.67443  -0.23022
C          C       0.66895   0.67983   0.53921  -0.03304
C          C       0.68318   0.62403   0.92896   0.24990
C          C       0.68447   0.36376   0.78398  -0.22900
C          C       0.67624   0.39368   0.92265  -0.03636
C          C       0.67753   0.44153   0.51365   0.24440
C          C       0.76321   0.30929   0.59949   0.06425
C          C       0.75324   0.75342   0.80385   0.06285
C          C       0.21189   0.91074   0.93904   0.07913
C          C       0.76360   0.35470   0.67765  -0.14138
C          C       0.74872   0.36790   0.64906  -0.12110
C          C       0.73279   0.33639   0.54220   0.06995
C          C       0.73223   0.29328   0.97769  -0.12822
C          C       0.74707   0.28073   0.00839  -0.15264
C          C       0.23898   0.90840   0.94572  -0.14298
C          C       0.24810   0.88937   0.96635  -0.12668
C          C       0.23043   0.87174   0.97961   0.04730
C          C       0.20334   0.87245   0.96746  -0.13046
C          C       0.19420   0.89215   0.94888  -0.14855
C          C       0.18273   0.12994   0.78927   0.07117
C          C       0.20654   0.10665   0.71303  -0.13806
C          C       0.22209   0.12341   0.69287  -0.11134
C          C       0.21417   0.16341   0.74708   0.05664
C          C       0.19017   0.18634   0.82293  -0.13092
C          C       0.17475   0.16993   0.84403  -0.15034
C          C       0.73408   0.78410   0.90747  -0.15256
C          C       0.72009   0.77223   0.94472  -0.12920
C          C       0.72497   0.72937   0.87984   0.06960
C          C       0.74351   0.69814   0.77271  -0.12222
C          C       0.75743   0.70989   0.73515  -0.14371
C          C       0.97102   0.92334   0.68203  -0.00516
C          C       0.99671   0.94782   0.74798  -0.01897
C          C       0.97591   0.06243   0.77519  -0.02662
C          C       0.97009   0.05198   0.67232  -0.01218
C          C       0.09242   0.94720   0.57999   0.05709
C          C       0.09510   0.99380   0.66174   0.04295
C          C       0.07963   0.01102   0.64400  -0.07386
C          C       0.06335   0.98122   0.54030   0.20575
C          C       0.05881   0.93659   0.96454  -0.23001
C          C       0.07291   0.91973   0.98333  -0.13113
C          C       0.10813   0.93048   0.59862  -0.19897
C          C       0.12680   0.95775   0.69154   0.05311
C          C       0.12964   0.00327   0.76870  -0.12604
C          C       0.11404   0.02120   0.75688  -0.11471
C          C       0.07979   0.06034   0.73516  -0.05387
C          C       0.09416   0.07421   0.70233   0.03863
C          C       0.09133   0.12087   0.78397   0.05823
C          C       0.07521   0.15311   0.90086  -0.13526
C          C       0.06251   0.13997   0.93544  -0.22133
C          C       0.06457   0.09334   0.85178   0.19863
C          C       0.10482   0.13336   0.74620  -0.20465
C          C       0.12150   0.10189   0.63465   0.06278
C          C       0.12517   0.05650   0.55861  -0.12448
C          C       0.11160   0.04280   0.58985  -0.11545
C          C       0.90232   0.06010   0.53416   0.05798
C          C       0.90548   0.03856   0.55442   0.03765
C          C       0.92295   0.99592   0.95775  -0.08102
C          C       0.93595   0.97710   0.85121   0.20623
C          C       0.93287   0.99843   0.83135  -0.21703
C          C       0.91689   0.03783   0.91659  -0.11998
C          C       0.88600   0.10071   0.62286  -0.18640
C          C       0.87305   0.12116   0.73120   0.05409
C          C       0.87670   0.10007   0.75192  -0.13771
C          C       0.89220   0.06012   0.66650  -0.14564
C          C       0.92753   0.97348   0.97757  -0.06017
C          C       0.90838   0.94514   0.94837   0.03894
C          C       0.91504   0.92141   0.95954   0.06968
C          C       0.94051   0.92623  -0.00183  -0.13098
C          C       0.95794   0.95296   0.52602  -0.19243
C          C       0.95117   0.97797   0.52036   0.19849
C          C       0.89603   0.89397   0.93316  -0.19017
C          C       0.87089   0.88942   0.89730   0.06244
C          C       0.86459   0.91260   0.88481  -0.13527
C          C       0.88277   0.93919   0.90831  -0.13221
C          C       0.00830   0.05198   0.83992  -0.02470
C          C       0.02581   0.09378   0.93729  -0.01521
C          C       0.03525   0.94343   0.80917  -0.02419
C          C       0.02768   0.97905   0.95129  -0.01962
C          C       0.14366   0.94148   0.71309   0.05847
C          C       0.13524   0.11432   0.59346   0.06177
C          C       0.85635   0.16385   0.82216   0.05903
C          C       0.85128   0.86217   0.87682   0.05983
C          C       0.84044   0.16999   0.77593  -0.13810
C          C       0.82606   0.21134   0.86111  -0.15392
C          C       0.82700   0.24813   0.99551   0.10281
C          C       0.84165   0.23858   0.53190  -0.15001
C          C       0.85653   0.20019   0.95693  -0.13832
C          C       0.82469   0.87799   0.92336  -0.13607
C          C       0.80688   0.85441   0.91464  -0.15276
C          C       0.81486   0.81396   0.85788   0.10463
C          C       0.84105   0.79707   0.80644  -0.14405
C          C       0.85900   0.82081   0.81616  -0.13064
C          C       0.13445   0.91133   0.69872  -0.14130
C          C       0.15083   0.89640   0.71944  -0.15180
C          C       0.17698   0.91067   0.75440   0.10803
C          C       0.18607   0.94116   0.77023  -0.13443
C          C       0.16971   0.95644   0.75075  -0.12744
C          C       0.16136   0.09799   0.53898  -0.12068
C          C       0.17482   0.10730   0.99479  -0.13435
C          C       0.16154   0.13634   0.50924   0.09808
C          C       0.13543   0.15256   0.56302  -0.15108
C          C       0.12243   0.14166   0.60438  -0.13486
C          C       0.81191   0.28951   0.57185  -0.22995
C          C       0.78287   0.29200   0.61459  -0.02923
C          C       0.78231   0.32011   0.74580   0.24493
C          C       0.79632   0.79056   0.85814  -0.22881
C          C       0.77120   0.76996   0.77873  -0.03548
C          C       0.77873   0.73332   0.64142   0.25279
C          C       0.17532   0.14574   0.95984  -0.22811
C          C       0.16657   0.11632   0.82639  -0.04086
C          C       0.16903   0.06723   0.73069   0.26802
C          C       0.19457   0.89373   0.77470  -0.22584
C          C       0.20088   0.93189   0.91895  -0.05020
C          C       0.21851   0.96572   0.96387   0.27955
N          N       0.30317   0.84686   0.26038  -0.38040
N          N       0.27876   0.18945   0.43683  -0.38661
N          N       0.68517   0.48017   0.08941  -0.35665
N          N       0.68204   0.59253   0.36084  -0.35609
N          N       0.78458   0.34904   0.36846  -0.38499
N          N       0.78481   0.70166   0.02915  -0.38182
N          N       0.23268   0.99246  -0.00145  -0.40482
N          N       0.17126   0.03076   0.16561  -0.37090
N          N       0.30171   0.84626   0.75871  -0.38042
N          N       0.27755   0.18335   0.91935  -0.38504
N          N       0.68006   0.48002   0.58541  -0.35695
N          N       0.69341   0.58923   0.86624  -0.36540
N          N       0.78303   0.34303   0.85093  -0.38469
N          N       0.78504   0.70365   0.53180  -0.38181
N          N       0.23249   0.98644   0.48357  -0.40622
N          N       0.17081   0.02853   0.65891  -0.37001
O          O       0.45891   0.47626   0.00734  -0.21707
O          O       0.51969   0.54452   0.32087  -0.23318
O          O       0.57291   0.56274   0.40547  -0.19590
O          O       0.44897   0.55160   0.30913  -0.19536
O          O       0.51006   0.47870   0.42792  -0.23896
O          O       0.57271   0.50098   0.05586  -0.21908
O          O       0.94966   0.93890   0.27562  -0.18810
O          O      -0.00053   0.04345   0.24862  -0.21614
O          O       0.05159   0.07876   0.38287  -0.20541
O          O       0.97084   0.00479   0.04581  -0.23426
O          O       0.00977   0.92033   0.23898  -0.22966
O          O       0.05017   0.00110   0.02880  -0.19593
O          O       0.45899   0.47420   0.50268  -0.21643
O          O       0.51717   0.55320   0.83588  -0.23632
O          O       0.57163   0.56026   0.89817  -0.19750
O          O       0.44577   0.55577   0.81921  -0.19820
O          O       0.50926   0.47731   0.92092  -0.24058
O          O       0.57517   0.49700   0.54457  -0.22532
O          O       0.95047   0.93664   0.76705  -0.19174
O          O       0.00073   0.04076   0.74191  -0.21786
O          O       0.05291   0.07938   0.88530  -0.20865
O          O       0.97060   0.00331   0.54293  -0.23214
O          O       0.01196   0.92124   0.73665  -0.23281
O          O       0.05137   0.99867   0.52032  -0.19869

