data_crystal

_audit_creation_method 'AiiDA-DDEC plugin'

_cell_length_a        54.11663
_cell_length_b        40.86498
_cell_length_c        15.58202

_cell_angle_alpha     137.67960
_cell_angle_beta     90.61445
_cell_angle_gamma     89.96526

_symmetry_space_group_name_Hall 'P 1'
_symmetry_space_group_name_H-M  'P 1'

loop_
_symmetry_equiv_pos_as_xyz
 'x,y,z'

loop_
_atom_site_label
_atom_site_type_symbol
_atom_site_fract_x
_atom_site_fract_y
_atom_site_fract_z
_atom_site_charge
H          H       0.98077   0.85410   0.41795   0.09956
H          H       0.00758   0.88392   0.43555   0.06699
H          H       0.96950   0.91255   0.94727   0.06682
H          H       0.98024   0.95336   0.10794   0.08160
H          H       0.42889   0.39677   0.04309   0.06059
H          H       0.43446   0.40957   0.17873   0.07914
H          H       0.47539   0.38428   0.00341   0.07105
H          H       0.45986   0.34065   0.98374   0.07934
H          H       0.46375   0.63414   0.23135   0.08819
H          H       0.45828   0.58290   0.19839   0.07223
H          H       0.47770   0.57756   0.00377   0.10118
H          H       0.44573   0.57334   0.02121   0.07124
H          H       0.98995   0.05105   0.47310   0.07390
H          H       0.96825   0.09272   0.11033   0.06831
H          H       0.94659   0.03584   0.39568   0.07487
H          H       0.93744   0.02473   0.48188   0.07843
H          H       0.11268   0.05656   0.16685   0.10467
H          H       0.54627   0.36324   0.20454   0.12159
H          H       0.57955   0.34161   0.26592   0.11282
H          H       0.61611   0.36495   0.39647   0.11550
H          H       0.64914   0.51551   0.14482   0.09712
H          H       0.61500   0.53353   0.08101   0.10455
H          H       0.56304   0.64693   0.10502   0.11126
H          H       0.53349   0.61284   0.14569   0.12570
H          H       0.60203   0.64024   0.01189   0.11579
H          H       0.64575   0.51307   0.30560   0.09565
H          H       0.61496   0.47762   0.33271   0.10559
H          H       0.43882   0.50628   0.14488   0.11107
H          H       0.40872   0.57399   0.26265   0.10933
H          H       0.37768   0.62520   0.42602   0.11211
H          H       0.36005   0.61128   0.16923   0.11391
H          H       0.39072   0.54627   0.05812   0.10450
H          H       0.45015   0.39794   0.40752   0.10788
H          H       0.47892   0.45647   0.45132   0.12532
H          H       0.40818   0.37023   0.37934   0.10637
H          H       0.34825   0.41985   0.31558   0.11062
H          H       0.37706   0.47009   0.33053   0.11197
H          H       0.49372   0.52896   0.11801   0.06803
H          H       0.49599   0.57812   0.28767   0.06797
H          H       0.53585   0.54317   0.21975   0.09288
H          H       0.53916   0.59589   0.25680   0.08977
H          H       0.50593   0.42764   0.13872   0.07589
H          H       0.51788   0.37361   0.08135   0.06209
H          H       0.51510   0.41482   0.30756   0.07500
H          H       0.50533   0.46879   0.35888   0.08220
H          H       0.31892   0.62762   0.13024   0.11195
H          H       0.28754   0.68946   0.21717   0.10922
H          H       0.34061   0.76796   0.21587   0.12243
H          H       0.37134   0.70584   0.12705   0.11287
H          H       0.33125   0.34955   0.22695   0.10855
H          H       0.30366   0.30403   0.23484   0.10566
H          H       0.35688   0.32495   0.98671   0.11421
H          H       0.38243   0.37382   0.98625   0.10534
H          H       0.63006   0.39417   0.08277   0.11654
H          H       0.66013   0.37436   0.15714   0.11712
H          H       0.71731   0.44653   0.15172   0.10866
H          H       0.68652   0.46784   0.08122   0.11474
H          H       0.67693   0.57398   0.41240   0.11279
H          H       0.70639   0.59928   0.34972   0.10953
H          H       0.64572   0.65131   0.29428   0.11725
H          H       0.61682   0.62779   0.36210   0.11456
H          H       0.27295   0.75127   0.25090   0.11407
H          H       0.29259   0.27540   0.31217   0.11168
H          H       0.71587   0.63093   0.28450   0.10654
H          H       0.72924   0.40293   0.18397   0.10838
H          H       0.28748   0.88121   0.32480   0.12274
H          H       0.25054   0.91398   0.32065   0.11456
H          H       0.20513   0.82563   0.31482   0.12172
H          H       0.24219   0.79341   0.32135   0.11375
H          H       0.69984   0.70824   0.18099   0.12297
H          H       0.73728   0.72767   0.13836   0.11410
H          H       0.77995   0.63875   0.13916   0.12414
H          H       0.74246   0.61806   0.17745   0.11122
H          H       0.71240   0.30947   0.24084   0.12291
H          H       0.74869   0.26974   0.22513   0.11462
H          H       0.79537   0.34994   0.20691   0.12299
H          H       0.75933   0.39015   0.22480   0.11243
H          H       0.31331   0.22686   0.49025   0.11915
H          H       0.28094   0.17875   0.46881   0.11308
H          H       0.23996   0.16965   0.21331   0.10711
H          H       0.27239   0.21644   0.23169   0.10505
H          H       0.22119   0.91771   0.25326   0.10901
H          H       0.24129   0.18065   0.02575   0.11304
H          H       0.77662   0.21979   0.12504   0.10995
H          H       0.76992   0.76395   0.19530   0.10757
H          H       0.04447   0.88792   0.26318   0.12166
H          H       0.07400   0.86876   0.34203   0.11293
H          H       0.10935   0.89085   0.47424   0.11513
H          H       0.14486   0.03130   0.21970   0.09679
H          H       0.00445   0.97558   0.34186   0.07824
H          H       0.01565   0.92524   0.30150   0.07798
H          H       0.03485   0.89480   0.10103   0.06644
H          H       0.01886   0.94245   0.14072   0.06664
H          H       0.18026   0.97955   0.14001   0.11844
H          H       0.21018   0.95773   0.21142   0.11171
H          H       0.15183   0.88599   0.21303   0.11625
H          H       0.12248   0.90720   0.13979   0.11329
H          H       0.91593   0.04330   0.16067   0.10734
H          H       0.88223   0.09142   0.31090   0.11075
H          H       0.85459   0.06301   0.50921   0.11148
H          H       0.88342   0.99510   0.39440   0.11219
H          H       0.81843   0.08624   0.47802   0.11154
H          H       0.78762   0.15002   0.05866   0.10925
H          H       0.84599   0.23334   0.10116   0.11786
H          H       0.87479   0.16923   0.51017   0.11014
H          H       0.07659   0.17179   0.15361   0.10928
H          H       0.04141   0.14831   0.19757   0.11114
H          H       0.11841   0.15628   0.07010   0.10795
H          H       0.15623   0.02336   0.39227   0.10513
H          H       0.11919   0.99455   0.40904   0.10576
H          H       0.02395   0.12685   0.30229   0.07969
H          H       0.01157   0.11330   0.17261   0.06744
H          H       0.18690   0.08787   0.03169   0.11528
H          H       0.22486   0.11365   0.51062   0.10568
H          H       0.18281   0.15300   0.36102   0.11517
H          H       0.14431   0.12720   0.38325   0.11669
H          H       0.93688   0.85214   0.27494   0.11604
H          H       0.96855   0.90770   0.31794   0.12021
H          H       0.89355   0.82623   0.23458   0.11765
H          H       0.84151   0.86641   0.11456   0.11281
H          H       0.87323   0.91706   0.14332   0.11360
H          H       0.81666   0.86805   0.23704   0.11028
H          H       0.78398   0.82399   0.22948   0.10728
H          H       0.83667   0.71483   0.09336   0.12208
H          H       0.86890   0.75867   0.10019   0.11456
H          H       0.98313   0.09727   0.26646   0.06233
H          H       0.00286   0.04902   0.20581   0.09883
H          H       0.94534   0.97580   0.04406   0.11664
H          H       0.97608   0.84404   0.92847   0.09980
H          H       0.00276   0.86951   0.92840   0.06908
H          H       0.97620   0.93553   0.48701   0.06746
H          H       0.98415   0.96452   0.64239   0.08181
H          H       0.42854   0.39715   0.54364   0.06112
H          H       0.43467   0.40927   0.67783   0.07595
H          H       0.47435   0.38153   0.49405   0.07092
H          H       0.45910   0.34073   0.48595   0.08910
H          H       0.46358   0.63469   0.73904   0.08643
H          H       0.45782   0.58251   0.70179   0.07144
H          H       0.47850   0.57902   0.51246   0.10338
H          H       0.44631   0.57508   0.52741   0.07132
H          H       0.98964   0.05623   0.98266   0.07401
H          H       0.96856   0.09149   0.59944   0.06936
H          H       0.94560   0.04057   0.90856   0.07545
H          H       0.93845   0.02378   0.98338   0.07796
H          H       0.11235   0.05550   0.66203   0.10554
H          H       0.55125   0.35767   0.68657   0.12348
H          H       0.58555   0.34107   0.75673   0.11463
H          H       0.62159   0.36941   0.89411   0.11301
H          H       0.64984   0.50580   0.63427   0.09724
H          H       0.61643   0.52927   0.58204   0.10229
H          H       0.56639   0.65436   0.64729   0.11182
H          H       0.53609   0.62030   0.68483   0.12695
H          H       0.60425   0.64533   0.54444   0.11614
H          H       0.64791   0.51484   0.80554   0.09721
H          H       0.61706   0.47800   0.82761   0.10261
H          H       0.43821   0.50680   0.64581   0.11086
H          H       0.40785   0.57413   0.76382   0.10918
H          H       0.37639   0.62448   0.92629   0.11213
H          H       0.36192   0.61508   0.67595   0.11280
H          H       0.39222   0.54944   0.56443   0.10367
H          H       0.45066   0.39773   0.90641   0.10934
H          H       0.47901   0.45605   0.94819   0.12523
H          H       0.40896   0.36884   0.87656   0.10775
H          H       0.34854   0.41625   0.80884   0.11005
H          H       0.37686   0.46713   0.82437   0.11260
H          H       0.49327   0.53024   0.63196   0.06927
H          H       0.49423   0.58081   0.80151   0.06604
H          H       0.53432   0.54527   0.73903   0.09335
H          H       0.53808   0.59882   0.78013   0.08665
H          H       0.49478   0.45636   0.72437   0.07321
H          H       0.51354   0.40578   0.59761   0.06860
H          H       0.51822   0.39378   0.74184   0.07442
H          H       0.51109   0.45690   0.87024   0.06497
H          H       0.32113   0.63172   0.63951   0.11143
H          H       0.28952   0.69265   0.72197   0.10916
H          H       0.34163   0.76722   0.70345   0.12216
H          H       0.37266   0.70637   0.62063   0.11286
H          H       0.33143   0.34747   0.72561   0.10812
H          H       0.30468   0.30075   0.73208   0.10509
H          H       0.35467   0.32919   0.49449   0.11285
H          H       0.38078   0.37759   0.49424   0.10586
H          H       0.62641   0.39054   0.58936   0.11473
H          H       0.65610   0.37047   0.66467   0.11653
H          H       0.71492   0.43182   0.63098   0.10785
H          H       0.68463   0.45298   0.55870   0.11484
H          H       0.67716   0.57790   0.91057   0.11281
H          H       0.70670   0.60357   0.84945   0.10730
H          H       0.64588   0.64718   0.77014   0.11661
H          H       0.61681   0.62237   0.83365   0.11268
H          H       0.27449   0.75288   0.75173   0.11056
H          H       0.29447   0.27124   0.80727   0.11128
H          H       0.71624   0.63114   0.77345   0.10642
H          H       0.72590   0.39450   0.67944   0.10625
H          H       0.28725   0.87695   0.80037   0.12346
H          H       0.24975   0.90961   0.80085   0.11350
H          H       0.20622   0.82903   0.82759   0.11879
H          H       0.24404   0.79646   0.82806   0.11389
H          H       0.70052   0.71285   0.68182   0.12241
H          H       0.73785   0.73358   0.64204   0.11427
H          H       0.78092   0.64477   0.64210   0.12297
H          H       0.74369   0.62315   0.67845   0.11150
H          H       0.71107   0.30507   0.74922   0.12306
H          H       0.74835   0.26900   0.74102   0.11445
H          H       0.79290   0.34995   0.71893   0.12293
H          H       0.75593   0.38719   0.73165   0.11190
H          H       0.31338   0.22970   0.00225   0.11621
H          H       0.28002   0.18442   0.98613   0.11182
H          H       0.24265   0.16509   0.70555   0.10953
H          H       0.27610   0.20943   0.71957   0.10592
H          H       0.21960   0.91991   0.75996   0.10775
H          H       0.24056   0.17953   0.51958   0.11737
H          H       0.77683   0.22027   0.64117   0.11370
H          H       0.77118   0.76896   0.69290   0.10814
H          H       0.04615   0.88885   0.75646   0.12016
H          H       0.07700   0.86696   0.82432   0.11366
H          H       0.11233   0.88836   0.95742   0.11344
H          H       0.14359   0.03186   0.72284   0.09867
H          H       0.00526   0.97470   0.82785   0.08077
H          H       0.01622   0.92600   0.79581   0.07864
H          H       0.03969   0.89568   0.60510   0.06911
H          H       0.02581   0.94315   0.63739   0.07288
H          H       0.17805   0.98015   0.64532   0.11850
H          H       0.20835   0.95854   0.71622   0.11161
H          H       0.15031   0.88862   0.72563   0.11587
H          H       0.12049   0.91017   0.65448   0.11108
H          H       0.91708   0.04872   0.66261   0.10603
H          H       0.88194   0.09245   0.80416   0.11005
H          H       0.85338   0.05697   0.98452   0.11105
H          H       0.88332   0.99094   0.87118   0.10869
H          H       0.81689   0.08376   0.95947   0.11125
H          H       0.78864   0.15174   0.57684   0.10887
H          H       0.84558   0.23467   0.60985   0.12123
H          H       0.87471   0.16757   0.00282   0.10965
H          H       0.07681   0.16845   0.64205   0.10915
H          H       0.04108   0.14554   0.68460   0.11118
H          H       0.11850   0.15216   0.55846   0.10816
H          H       0.15653   0.02734   0.90090   0.10513
H          H       0.11961   0.99758   0.91516   0.10456
H          H       0.02430   0.12786   0.79427   0.08197
H          H       0.01087   0.11223   0.66295   0.06637
H          H       0.18695   0.08540   0.52501   0.11512
H          H       0.22501   0.11491   0.01470   0.10655
H          H       0.18305   0.15739   0.87277   0.11426
H          H       0.14439   0.13249   0.89696   0.11869
H          H       0.93872   0.85318   0.76371   0.11836
H          H       0.96987   0.91208   0.81605   0.12104
H          H       0.89545   0.82695   0.72201   0.11781
H          H       0.84396   0.86398   0.59228   0.11361
H          H       0.87575   0.91409   0.61931   0.11810
H          H       0.81877   0.86812   0.71772   0.10997
H          H       0.78564   0.82613   0.71534   0.10740
H          H       0.83775   0.71846   0.59287   0.12207
H          H       0.87038   0.75998   0.59382   0.11409
H          H       0.98309   0.10187   0.76987   0.06431
H          H       0.00222   0.05387   0.71465   0.09805
H          H       0.94864   0.98544   0.55416   0.11804
C          C       0.59727   0.41250   0.39991   0.06192
C          C       0.59678   0.46015   0.45454   0.04393
C          C       0.57696   0.47281   0.42232  -0.06904
C          C       0.55915   0.43764   0.33337   0.20430
C          C       0.56010   0.39011   0.27613  -0.21948
C          C       0.57869   0.37804   0.30963  -0.11758
C          C       0.61611   0.40098   0.43756  -0.17032
C          C       0.63728   0.44120   0.02632   0.04791
C          C       0.63560   0.48724   0.07468  -0.12595
C          C       0.61638   0.49744   0.03884  -0.13018
C          C       0.57455   0.52264   0.48327  -0.06780
C          C       0.59189   0.54164   0.46022   0.04265
C          C       0.58909   0.59007   0.52110   0.05705
C          C       0.56637   0.61175   0.06646  -0.12548
C          C       0.55006   0.59333   0.09022  -0.21840
C          C       0.55446   0.54753   0.03993   0.20392
C          C       0.60654   0.60862   0.49797  -0.17787
C          C       0.62688   0.58166   0.42182   0.04845
C          C       0.62995   0.53447   0.36581  -0.12897
C          C       0.61267   0.51451   0.38098  -0.12740
C          C       0.39824   0.57123   0.39112   0.06338
C          C       0.40238   0.54802   0.42753   0.03569
C          C       0.41991   0.50940   0.35942  -0.08242
C          C       0.43229   0.49495   0.25730   0.20960
C          C       0.42844   0.51884   0.22409  -0.19129
C          C       0.41180   0.55596   0.28906  -0.12215
C          C       0.38093   0.60914   0.45778  -0.18359
C          C       0.36582   0.62260   0.05497   0.05769
C          C       0.37020   0.59931   0.09006  -0.13662
C          C       0.38751   0.56298   0.02815  -0.14249
C          C       0.42642   0.48531   0.39519  -0.09681
C          C       0.40934   0.45353   0.37648   0.03781
C          C       0.41796   0.42288   0.38546   0.06007
C          C       0.44350   0.42284   0.40672  -0.10433
C          C       0.45943   0.45515   0.43119  -0.18386
C          C       0.45089   0.48757   0.42974   0.20424
C          C       0.40100   0.39348   0.37367  -0.17398
C          C       0.37584   0.39315   0.35425   0.05745
C          C       0.36773   0.42049   0.33480  -0.12609
C          C       0.38392   0.44915   0.34413  -0.14074
C          C       0.50223   0.56489   0.19900  -0.01739
C          C       0.53010   0.56009   0.19164  -0.00473
C          C       0.50608   0.40536   0.15423  -0.01362
C          C       0.51613   0.43553   0.28763  -0.00583
C          C       0.65611   0.43141   0.07358   0.09332
C          C       0.64469   0.59938   0.39258   0.09485
C          C       0.34742   0.66146   0.11927   0.07161
C          C       0.35866   0.36599   0.35696   0.08129
C          C       0.32374   0.65853   0.14988  -0.14232
C          C       0.30604   0.69342   0.19868  -0.12677
C          C       0.31129   0.73360   0.22267   0.09485
C          C       0.33550   0.73754   0.19756  -0.12079
C          C       0.35291   0.70210   0.14631  -0.13387
C          C       0.33625   0.34579   0.28707  -0.12946
C          C       0.32081   0.31962   0.29052  -0.12837
C          C       0.32725   0.31110   0.36100   0.09066
C          C       0.34935   0.33282   0.43450  -0.11960
C          C       0.36437   0.35989   0.43310  -0.12706
C          C       0.64928   0.40526   0.09697  -0.12464
C          C       0.66627   0.39435   0.13987  -0.11331
C          C       0.69136   0.40836   0.15904   0.08595
C          C       0.69807   0.43551   0.13801  -0.12623
C          C       0.68082   0.44744   0.09804  -0.14247
C          C       0.67018   0.59111   0.38705  -0.14226
C          C       0.68669   0.60519   0.35131  -0.12811
C          C       0.67850   0.62686   0.31566   0.08477
C          C       0.65288   0.63523   0.32181  -0.11241
C          C       0.63653   0.62222   0.36088  -0.12463
C          C       0.29110   0.76562   0.26162  -0.15131
C          C       0.29092   0.80895   0.30179  -0.00319
C          C       0.31339   0.83293   0.32482   0.23992
C          C       0.26807   0.83260   0.31648   0.05950
C          C       0.31074   0.28089   0.35258  -0.14522
C          C       0.31433   0.25751   0.38417  -0.01081
C          C       0.33736   0.26073   0.43561   0.23674
C          C       0.29502   0.22733   0.36710   0.06737
C          C       0.69721   0.63807   0.27486  -0.14193
C          C       0.69592   0.65590   0.22716  -0.01705
C          C       0.67311   0.66972   0.21496   0.23983
C          C       0.71826   0.66403   0.19083   0.06503
C          C       0.71081   0.39420   0.19039  -0.14000
C          C       0.71011   0.36943   0.21898  -0.01737
C          C       0.68742   0.35614   0.23297   0.23975
C          C       0.73257   0.35122   0.22739   0.06593
C          C       0.26946   0.86845   0.32136  -0.13223
C          C       0.24834   0.88681   0.31800  -0.13098
C          C       0.22460   0.87040   0.30962   0.06803
C          C       0.22318   0.83750   0.31527  -0.13459
C          C       0.24433   0.81903   0.31841  -0.13371
C          C       0.71745   0.69364   0.17436  -0.13502
C          C       0.73878   0.70482   0.15082  -0.13722
C          C       0.76196   0.68705   0.14283   0.06204
C          C       0.76248   0.65469   0.15021  -0.13471
C          C       0.74116   0.64339   0.17324  -0.13196
C          C       0.73056   0.31812   0.23211  -0.13699
C          C       0.75122   0.29530   0.22218  -0.13284
C          C       0.77496   0.30449   0.20722   0.05962
C          C       0.77718   0.34058   0.21329  -0.13081
C          C       0.75655   0.36330   0.22299  -0.13216
C          C       0.29701   0.21516   0.43123  -0.13405
C          C       0.27863   0.18820   0.41973  -0.13250
C          C       0.25755   0.17200   0.34282   0.07026
C          C       0.25598   0.18246   0.27479  -0.13129
C          C       0.27425   0.20954   0.28674  -0.13160
C          C       0.20202   0.88459   0.28910  -0.01709
C          C       0.20274   0.90778   0.25586  -0.13470
C          C       0.17922   0.86973   0.29769   0.24426
C          C       0.23691   0.14575   0.33376  -0.00901
C          C       0.22923   0.15467   0.43258  -0.12963
C          C       0.22495   0.10839   0.21207   0.23541
C          C       0.79686   0.27630   0.17891  -0.00475
C          C       0.79529   0.23196   0.13315  -0.14670
C          C       0.82001   0.29704   0.19469   0.24311
C          C       0.78521   0.70213   0.13031  -0.00897
C          C       0.78698   0.74345   0.16145  -0.14732
C          C       0.80605   0.67233   0.09006   0.24084
C          C       0.09222   0.93907   0.47612   0.05761
C          C       0.09407   0.98645   0.02556   0.04535
C          C       0.07556   0.99736   0.48221  -0.07861
C          C       0.05807   0.96198   0.38923   0.21233
C          C       0.05753   0.91555   0.33882  -0.23030
C          C       0.07416   0.90459   0.38194  -0.11671
C          C       0.11230   0.92534   0.00438  -0.17181
C          C       0.13065   0.95790   0.09354   0.05312
C          C       0.13065   0.00539   0.14951  -0.12495
C          C       0.11261   0.01962   0.11977  -0.13414
C          C       0.01897   0.94826   0.28991  -0.00952
C          C       0.01841   0.91802   0.14936  -0.01513
C          C       0.14912   0.94429   0.13257   0.09180
C          C       0.17408   0.95887   0.15537  -0.13894
C          C       0.19090   0.94658   0.19576  -0.12088
C          C       0.18360   0.91999   0.21789   0.08616
C          C       0.15842   0.90591   0.19610  -0.11568
C          C       0.14184   0.91748   0.15338  -0.12495
C          C       0.89913   0.03155   0.26173   0.05799
C          C       0.89941   0.00264   0.28252   0.03368
C          C       0.91645   0.96368   0.21479  -0.07773
C          C       0.93250   0.95431   0.12879   0.20886
C          C       0.93252   0.98335   0.11006  -0.21085
C          C       0.91606   0.02098   0.17509  -0.11968
C          C       0.88248   0.07061   0.33001  -0.18412
C          C       0.86623   0.08208   0.41740   0.05169
C          C       0.86683   0.05368   0.43877  -0.13536
C          C       0.88305   0.01573   0.37488  -0.14445
C          C       0.84880   0.12240   0.48470   0.07340
C          C       0.82441   0.11898   0.50815  -0.14285
C          C       0.80680   0.15401   0.04696  -0.12729
C          C       0.81416   0.19687   0.08641   0.09327
C          C       0.83924   0.20092   0.07042  -0.11919
C          C       0.85585   0.16517   0.52405  -0.13530
C          C       0.07682   0.04718   0.03514  -0.06461
C          C       0.09768   0.06169   0.01344   0.04312
C          C       0.09772   0.10725   0.05650   0.06094
C          C       0.07676   0.13730   0.12098  -0.12072
C          C       0.05694   0.12389   0.14505  -0.22946
C          C       0.05684   0.07889   0.10228   0.20339
C          C       0.11883   0.12178   0.03741  -0.18798
C          C       0.14003   0.09003   0.47393   0.05153
C          C       0.13979   0.04570   0.43499  -0.12337
C          C       0.11894   0.02958   0.44506  -0.12558
C          C       0.99630   0.06985   0.19050  -0.01641
C          C       0.01773   0.09700   0.20183  -0.02407
C          C       0.16263   0.10522   0.45808   0.07724
C          C       0.18576   0.10057   0.49011  -0.13310
C          C       0.20729   0.11684   0.48264  -0.13070
C          C       0.20670   0.13575   0.43535   0.08239
C          C       0.18367   0.13838   0.39752  -0.12982
C          C       0.16198   0.12419   0.41098  -0.13600
C          C       0.92001   0.93520   0.23954  -0.07963
C          C       0.90178   0.90283   0.21099   0.04258
C          C       0.90767   0.87429   0.23030   0.06596
C          C       0.93220   0.87530   0.26559  -0.11453
C          C       0.94965   0.90612   0.29084  -0.18416
C          C       0.94304   0.93818   0.28611   0.20755
C          C       0.88896   0.84574   0.21367  -0.18122
C          C       0.86500   0.84391   0.17724   0.05274
C          C       0.85981   0.86978   0.15016  -0.13550
C          C       0.87762   0.89789   0.16531  -0.13277
C          C       0.84535   0.81677   0.16920   0.07811
C          C       0.82097   0.83417   0.20386  -0.14408
C          C       0.80261   0.80945   0.20023  -0.12705
C          C       0.80752   0.76585   0.16070   0.09172
C          C       0.83200   0.74828   0.12514  -0.11856
C          C       0.85032   0.77337   0.12987  -0.13050
C          C       0.97483   0.05520   0.02874  -0.01648
C          C       0.95293   0.02247   0.43274  -0.01478
C          C       0.98734   0.87731   0.98695  -0.01458
C          C       0.97159   0.91757   0.02670  -0.02176
C          C       0.44270   0.41043   0.11642  -0.01649
C          C       0.46561   0.37916   0.05446  -0.00882
C          C       0.46950   0.59653   0.17126  -0.02195
C          C       0.46453   0.56686   0.03279  -0.02391
C          C       0.60059   0.41423   0.89362   0.06354
C          C       0.59826   0.46152   0.94726   0.04179
C          C       0.57811   0.47085   0.90773  -0.06835
C          C       0.56135   0.43342   0.81631   0.20769
C          C       0.56414   0.38641   0.76098  -0.21481
C          C       0.58328   0.37713   0.79922  -0.11830
C          C       0.61993   0.40547   0.93603  -0.16997
C          C       0.63484   0.43394   0.52213   0.04993
C          C       0.63511   0.47985   0.56930  -0.12451
C          C       0.61633   0.49310   0.53983  -0.13105
C          C       0.57464   0.51946   0.96259  -0.06642
C          C       0.59180   0.53864   0.93929   0.04319
C          C       0.58778   0.58558   0.99247   0.06070
C          C       0.56871   0.61795   0.60263  -0.12260
C          C       0.55202   0.59942   0.62478  -0.22134
C          C       0.55511   0.55193   0.56618   0.20629
C          C       0.60527   0.60461   0.97084  -0.17618
C          C       0.62685   0.57998   0.90454   0.05207
C          C       0.63108   0.53450   0.85709  -0.12679
C          C       0.61378   0.51372   0.86970  -0.12753
C          C       0.39703   0.57003   0.88927   0.06477
C          C       0.40123   0.54632   0.92429   0.03377
C          C       0.41916   0.50832   0.85699  -0.08209
C          C       0.43170   0.49465   0.75630   0.20802
C          C       0.42772   0.51883   0.72407  -0.19233
C          C       0.41087   0.55567   0.78898  -0.12130
C          C       0.37951   0.60767   0.95606  -0.18366
C          C       0.36753   0.62509   0.55861   0.05775
C          C       0.37191   0.60246   0.59558  -0.13633
C          C       0.38897   0.56573   0.53335  -0.14374
C          C       0.42612   0.48428   0.89250  -0.09681
C          C       0.40932   0.45208   0.87339   0.03794
C          C       0.41823   0.42174   0.88294   0.06071
C          C       0.44379   0.42227   0.90476  -0.10400
C          C       0.45950   0.45454   0.92813  -0.18492
C          C       0.45075   0.48668   0.92606   0.20543
C          C       0.40157   0.39183   0.87045  -0.17590
C          C       0.37639   0.39075   0.84997   0.05797
C          C       0.36802   0.41765   0.82955  -0.12535
C          C       0.38393   0.44676   0.83944  -0.14029
C          C       0.50135   0.56666   0.71288  -0.01675
C          C       0.52923   0.56276   0.71177  -0.00522
C          C       0.50224   0.42159   0.67939  -0.00585
C          C       0.51815   0.42818   0.77281   0.00184
C          C       0.65332   0.42238   0.56624   0.09368
C          C       0.64470   0.59826   0.87686   0.09331
C          C       0.34920   0.66386   0.62138   0.07148
C          C       0.35955   0.36313   0.85225   0.08088
C          C       0.32571   0.66172   0.65500  -0.14209
C          C       0.30787   0.69600   0.70095  -0.12707
C          C       0.31277   0.73471   0.71847   0.09459
C          C       0.33680   0.73791   0.69016  -0.12061
C          C       0.35438   0.70315   0.64227  -0.13420
C          C       0.33696   0.34310   0.78392  -0.12907
C          C       0.32197   0.31630   0.78665  -0.12619
C          C       0.32894   0.30736   0.85568   0.08881
C          C       0.35121   0.32891   0.92774  -0.11998
C          C       0.36585   0.35634   0.92645  -0.12647
C          C       0.64592   0.39900   0.59720  -0.12577
C          C       0.66271   0.38795   0.64057  -0.11447
C          C       0.68812   0.39912   0.65275   0.08661
C          C       0.69542   0.42316   0.62306  -0.12667
C          C       0.67845   0.43509   0.58236  -0.13960
C          C       0.67035   0.59291   0.87942  -0.13923
C          C       0.68694   0.60738   0.84493  -0.12730
C          C       0.67880   0.62723   0.80417   0.08554
C          C       0.65305   0.63281   0.80240  -0.11293
C          C       0.63657   0.61898   0.83900  -0.12375
C          C       0.29243   0.76615   0.75579  -0.14975
C          C       0.29189   0.80797   0.78881  -0.00365
C          C       0.31404   0.83032   0.80156   0.24067
C          C       0.26881   0.83182   0.80685   0.05914
C          C       0.31263   0.27729   0.84836  -0.14436
C          C       0.31626   0.25491   0.88279  -0.01137
C          C       0.33912   0.25872   0.93616   0.23688
C          C       0.29676   0.22541   0.86725   0.06864
C          C       0.69768   0.63941   0.76632  -0.14092
C          C       0.69668   0.65963   0.72486  -0.01583
C          C       0.67404   0.67576   0.71888   0.24211
C          C       0.71910   0.66863   0.69099   0.06471
C          C       0.70752   0.38594   0.68683  -0.14047
C          C       0.70723   0.36262   0.71965  -0.01590
C          C       0.68475   0.34854   0.73267   0.24375
C          C       0.73012   0.34682   0.73307   0.06584
C          C       0.26951   0.86582   0.80499  -0.13366
C          C       0.24800   0.88428   0.80487  -0.12855
C          C       0.22454   0.86999   0.80710   0.06856
C          C       0.22395   0.83914   0.81971  -0.13357
C          C       0.24550   0.82047   0.81939  -0.13334
C          C       0.71823   0.69865   0.67579  -0.13448
C          C       0.73950   0.71052   0.65374  -0.13556
C          C       0.76276   0.69290   0.64554   0.05981
C          C       0.76338   0.66047   0.65278  -0.13298
C          C       0.74213   0.64856   0.67456  -0.13324
C          C       0.72897   0.31462   0.74105  -0.13578
C          C       0.75017   0.29383   0.73522  -0.13327
C          C       0.77360   0.30414   0.72073   0.06004
C          C       0.77495   0.33967   0.72455  -0.13272
C          C       0.75379   0.36053   0.73083  -0.13211
C          C       0.29761   0.21650   0.93906  -0.13172
C          C       0.27869   0.19105   0.93027  -0.13170
C          C       0.25826   0.17298   0.84820   0.06873
C          C       0.25801   0.17978   0.77185  -0.13254
C          C       0.27680   0.20544   0.78124  -0.13196
C          C       0.20143   0.88417   0.78998  -0.01838
C          C       0.20140   0.90888   0.76113  -0.13359
C          C       0.17908   0.86770   0.79660   0.24576
C          C       0.23711   0.14826   0.84153  -0.00949
C          C       0.22955   0.15701   0.94022  -0.12683
C          C       0.22462   0.11179   0.72107   0.23611
C          C       0.79606   0.27729   0.69377  -0.00527
C          C       0.79525   0.23298   0.64829  -0.15078
C          C       0.81885   0.29878   0.70888   0.24227
C          C       0.78599   0.70739   0.63097  -0.00793
C          C       0.78806   0.74797   0.65891  -0.14711
C          C       0.80660   0.67697   0.58952   0.24166
C          C       0.09419   0.93822   0.96745   0.05765
C          C       0.09293   0.98609   0.52712   0.04391
C          C       0.07631   0.99899   0.98517  -0.07841
C          C       0.05892   0.96382   0.89058   0.21255
C          C       0.05914   0.91620   0.83320  -0.23211
C          C       0.07643   0.90385   0.87079  -0.11597
C          C       0.10991   0.92714   0.51681  -0.17153
C          C       0.12859   0.95946   0.60331   0.05308
C          C       0.12923   0.00600   0.65377  -0.12378
C          C       0.11168   0.01933   0.61972  -0.13294
C          C       0.02043   0.94898   0.78479  -0.01158
C          C       0.02316   0.91860   0.64483  -0.02144
C          C       0.14704   0.94611   0.64296   0.09056
C          C       0.17203   0.96007   0.66276  -0.13701
C          C       0.18904   0.94783   0.70254  -0.12032
C          C       0.18194   0.92155   0.72582   0.08803
C          C       0.15673   0.90816   0.70728  -0.11414
C          C       0.13989   0.91993   0.66584  -0.12450
C          C       0.89972   0.03280   0.75316   0.05864
C          C       0.90018   0.00240   0.76922   0.03666
C          C       0.91829   0.96517   0.70430  -0.08002
C          C       0.93533   0.95942   0.62689   0.21128
C          C       0.93501   0.98989   0.61274  -0.21042
C          C       0.91742   0.02540   0.67381  -0.11854
C          C       0.88230   0.07056   0.81990  -0.18468
C          C       0.86549   0.07977   0.90238   0.05233
C          C       0.86610   0.04971   0.91848  -0.13499
C          C       0.88298   0.01273   0.85525  -0.14378
C          C       0.84797   0.12007   0.97061   0.07297
C          C       0.82330   0.11668   0.99147  -0.14152
C          C       0.80764   0.15583   0.56343  -0.12519
C          C       0.81450   0.19839   0.60059   0.09378
C          C       0.83930   0.20246   0.58129  -0.12109
C          C       0.85552   0.16337   0.01363  -0.13451
C          C       0.07626   0.04470   0.52781  -0.06389
C          C       0.09733   0.05852   0.50503   0.04296
C          C       0.09763   0.10375   0.54646   0.06225
C          C       0.07674   0.13408   0.61001  -0.11983
C          C       0.05664   0.12111   0.63378  -0.23053
C          C       0.05624   0.07652   0.59289   0.20225
C          C       0.11882   0.11779   0.52647  -0.18758
C          C       0.14011   0.09417   0.98454   0.05082
C          C       0.14006   0.04956   0.94416  -0.12620
C          C       0.11929   0.03290   0.95280  -0.12560
C          C       0.99576   0.07283   0.69355  -0.01595
C          C       0.01731   0.09723   0.69546  -0.02458
C          C       0.16268   0.10939   0.96890   0.07698
C          C       0.18580   0.10370  -0.00143  -0.13444
C          C       0.20741   0.11935   0.98983  -0.13216
C          C       0.20684   0.13888   0.94420   0.08233
C          C       0.18381   0.14257   0.90873  -0.12934
C          C       0.16207   0.12886   0.92315  -0.13739
C          C       0.92185   0.93556   0.72563  -0.07460
C          C       0.90393   0.90201   0.69340   0.04500
C          C       0.90974   0.87400   0.71455   0.06574
C          C       0.93408   0.87623   0.75392  -0.12138
C          C       0.95117   0.90842   0.78345  -0.19106
C          C       0.94442   0.94000   0.77749   0.20816
C          C       0.89099   0.84554   0.69829  -0.18159
C          C       0.86708   0.84328   0.66061   0.05485
C          C       0.86216   0.86786   0.62947  -0.13543
C          C       0.88000   0.89577   0.64393  -0.13578
C          C       0.84720   0.81729   0.65587   0.07679
C          C       0.82286   0.83496   0.68856  -0.14232
C          C       0.80425   0.81150   0.68825  -0.12742
C          C       0.80883   0.76899   0.65438   0.09235
C          C       0.83326   0.75114   0.62060  -0.11841
C          C       0.85185   0.77491   0.62185  -0.12960
C          C       0.97463   0.05329   0.52336  -0.01656
C          C       0.95319   0.02476   0.93733  -0.01309
C          C       0.99224   0.88716   0.48738  -0.01261
C          C       0.97662   0.93100   0.54828  -0.02031
C          C       0.44259   0.41047   0.61574  -0.02092
C          C       0.46532   0.37868   0.55137  -0.01137
C          C       0.46936   0.59698   0.67775  -0.02115
C          C       0.46491   0.56814   0.53958  -0.02241
N          N       0.33124   0.85423   0.34561  -0.36296
N          N       0.35595   0.26239   0.47806  -0.35410
N          N       0.66953   0.34380   0.24518  -0.36105
N          N       0.65496   0.68221   0.20432  -0.36309
N          N       0.16102   0.85656   0.30541  -0.36965
N          N       0.21688   0.07549   0.10895  -0.35281
N          N       0.83852   0.31564   0.20937  -0.36619
N          N       0.82290   0.65078   0.55512  -0.36691
N          N       0.33153   0.85044   0.81389  -0.36316
N          N       0.35753   0.26067   0.98012  -0.35416
N          N       0.66697   0.33559   0.74362  -0.36626
N          N       0.65598   0.69027   0.71428  -0.36597
N          N       0.16126   0.85308   0.80219  -0.37085
N          N       0.21616   0.07948   0.61856  -0.35322
N          N       0.83708   0.31781   0.72281  -0.36655
N          N       0.82259   0.64681   0.05744  -0.36636
O          O       0.45003   0.45932   0.18722  -0.22134
O          O       0.49520   0.59843   0.19774  -0.23697
O          O       0.53849   0.52838   0.06264  -0.21397
O          O       0.46900   0.51661   0.45141  -0.20313
O          O       0.48146   0.39072   0.14827  -0.22923
O          O       0.54125   0.45024   0.29883  -0.20946
O          O       0.04234   0.97373   0.34588  -0.19806
O          O       0.94779   0.91530   0.06304  -0.19671
O          O       0.03749   0.06385   0.12339  -0.18641
O          O       0.96069   0.97243   0.32921  -0.21840
O          O       0.99633   0.88877   0.09349  -0.22634
O          O       0.98380   0.03529   0.06933  -0.22475
O          O       0.44977   0.45956   0.68758  -0.22174
O          O       0.49497   0.59870   0.70570  -0.23646
O          O       0.53867   0.53210   0.58511  -0.20765
O          O       0.46883   0.51547   0.94626  -0.20400
O          O       0.48255   0.38859   0.63851  -0.23967
O          O       0.54276   0.44218   0.77402  -0.21847
O          O       0.04261   0.97743   0.85378  -0.19604
O          O       0.95198   0.92238   0.56344  -0.20551
O          O       0.03642   0.06244   0.61485  -0.18816
O          O       0.96150   0.97585   0.82632  -0.22308
O          O       0.00144   0.88854   0.57646  -0.22829
O          O       0.98254   0.03692   0.57461  -0.22338

