data_crystal

_audit_creation_method 'AiiDA-DDEC plugin'

_cell_length_a        47.50874
_cell_length_b        55.00278
_cell_length_c        17.23095

_cell_angle_alpha     155.51265
_cell_angle_beta     84.84340
_cell_angle_gamma     91.35262

_symmetry_space_group_name_Hall 'P 1'
_symmetry_space_group_name_H-M  'P 1'

loop_
_symmetry_equiv_pos_as_xyz
 'x,y,z'

loop_
_atom_site_label
_atom_site_type_symbol
_atom_site_fract_x
_atom_site_fract_y
_atom_site_fract_z
_atom_site_charge
H          H       0.22789   0.10635   0.30382   0.10715
H          H       0.25431   0.11367   0.19875   0.11040
H          H       0.19380   0.26344   0.57853   0.11352
H          H       0.16663   0.25493   0.67951   0.11794
H          H       0.12136   0.03919   0.33090   0.10360
H          H       0.07464   0.21711   0.67750   0.11711
H          H       0.03899   0.18503   0.18442   0.11658
H          H       0.11232   0.19003   0.49209   0.11436
H          H       0.16196   0.01939   0.49363   0.09043
H          H       0.13332   0.98823   0.01614   0.10543
H          H       0.00080   0.02502   0.33414   0.08894
H          H       0.97101   0.08052   0.48632   0.07029
H          H       0.01091   0.13480   0.64300   0.07657
H          H       0.00614   0.12757   0.52099   0.07959
H          H       0.19231   0.06064   0.03609   0.10515
H          H       0.20786   0.07014   0.42110   0.10671
H          H       0.13176   0.17658   0.19036   0.11392
H          H       0.11351   0.16669   0.29727   0.11152
H          H       0.20285   0.10234   0.39066   0.10944
H          H       0.28359   0.87388   0.16769   0.11703
H          H       0.25632   0.87735   0.06425   0.10809
H          H       0.21956   0.72242   0.19677   0.11254
H          H       0.24627   0.72026   0.30432   0.11277
H          H       0.72379   0.41542   0.44816   0.11013
H          H       0.74842   0.39650   0.51043   0.10939
H          H       0.67379   0.29512   0.82342   0.11501
H          H       0.66030   0.30877   0.22711   0.11649
H          H       0.74424   0.61142   0.25164   0.11005
H          H       0.76156   0.64289   0.21365   0.11011
H          H       0.69449   0.79176   0.66151   0.11317
H          H       0.67838   0.76275   0.70692   0.11048
H          H       0.22732   0.24223   0.27292   0.10529
H          H       0.20318   0.23190   0.37237   0.10608
H          H       0.28244   0.14995   0.21546   0.11198
H          H       0.30646   0.15881   0.11014   0.11898
H          H       0.45408   0.44417   0.30441   0.08969
H          H       0.45874   0.39290   0.23275   0.08874
H          H       0.50464   0.38228   0.13235   0.07452
H          H       0.50731   0.42997   0.35132   0.07962
H          H       0.48506   0.59053   0.61501   0.06753
H          H       0.47296   0.52567   0.39355   0.09194
H          H       0.46817   0.63146   0.11280   0.09278
H          H       0.44369   0.61797   0.15345   0.06907
H          H       0.54731   0.44985   0.95508   0.11078
H          H       0.57380   0.40380   0.92663   0.11948
H          H       0.60745   0.40965   0.04171   0.10855
H          H       0.66160   0.54628   0.42114   0.09008
H          H       0.63518   0.59441   0.45873   0.10359
H          H       0.58335   0.78218   0.35959   0.10973
H          H       0.55763   0.75189   0.39479   0.12709
H          H       0.61613   0.75250   0.64757   0.10828
H          H       0.65822   0.57245   0.11098   0.08880
H          H       0.63090   0.54797   0.15840   0.10834
H          H       0.46646   0.53884   0.07821   0.10842
H          H       0.43522   0.62784   0.29135   0.09526
H          H       0.38662   0.67846   0.43219   0.11264
H          H       0.32203   0.65903   0.56203   0.10877
H          H       0.35625   0.58829   0.42125   0.11408
H          H       0.38995   0.49063   0.37858   0.11049
H          H       0.42710   0.55018   0.50791   0.10293
H          H       0.35360   0.42909   0.16987   0.11121
H          H       0.33752   0.40172   0.33763   0.11257
H          H       0.37424   0.46200   0.98199   0.10904
H          H       0.54864   0.55187   0.40138   0.07071
H          H       0.52982   0.58336   0.06228   0.06755
H          H       0.51425   0.65850   0.18073   0.06465
H          H       0.52929   0.62185   0.50176   0.07698
H          H       0.53702   0.50493   0.92033   0.08980
H          H       0.54777   0.44785   0.31144   0.07373
H          H       0.51514   0.52520   0.15296   0.08165
H          H       0.51338   0.57755   0.22902   0.09003
H          H       0.29711   0.65399   0.43206   0.11148
H          H       0.26768   0.69181   0.43692   0.10729
H          H       0.32840   0.81013   0.20928   0.11963
H          H       0.35868   0.76848   0.68917   0.11419
H          H       0.34943   0.28457   0.11627   0.11792
H          H       0.32111   0.22193   0.01692   0.11681
H          H       0.26938   0.38209   0.10045   0.10923
H          H       0.29922   0.44503   0.20440   0.11459
H          H       0.60897   0.42412   0.21002   0.10358
H          H       0.62679   0.39702   0.25685   0.10670
H          H       0.70437   0.46811   0.39237   0.10570
H          H       0.68793   0.48798   0.31995   0.10765
H          H       0.68873   0.61137   0.14720   0.10344
H          H       0.70676   0.61647   0.02557   0.10773
H          H       0.63356   0.74383   0.35519   0.10500
H          H       0.61413   0.73388   0.46209   0.11533
H          H       0.26260   0.73669   0.45203   0.10778
H          H       0.25612   0.29297   0.36003   0.11220
H          H       0.67106   0.73030   0.21973   0.10994
H          H       0.69721   0.44082   0.44063   0.11538
H          H       0.77412   0.38660   0.21366   0.11870
H          H       0.74935   0.39839   0.12922   0.11020
H          H       0.71778   0.25078   0.24435   0.10842
H          H       0.74250   0.23463   0.31535   0.10985
H          H       0.95902   0.10173   0.41372   0.07084
H          H       0.94155   0.04124   0.27247   0.06044
H          H       0.98002   0.04568   0.13312   0.08569
H          H       0.94211   0.04871   0.15171   0.07619
H          H       0.95288   0.96583   0.16848   0.11275
H          H       0.91652   0.05157   0.40229   0.09882
H          H       0.87684   0.11341   0.12961   0.11042
H          H       0.83633   0.09684   0.31223   0.11472
H          H       0.87342   0.01455   0.09922   0.11265
H          H       0.79492   0.11705   0.26782   0.11613
H          H       0.76154   0.18348   0.38740   0.11559
H          H       0.82976   0.28180   0.59415   0.11946
H          H       0.86266   0.21528   0.47298   0.11000
H          H       0.75468   0.24361   0.45517   0.11300
H          H       0.22013   0.86186   0.29885   0.10521
H          H       0.24744   0.85306   0.38503   0.10342
H          H       0.18867   0.74604   0.18904   0.11315
H          H       0.16149   0.75328   0.09601   0.11697
H          H       0.04963   0.87019   0.21983   0.12374
H          H       0.07378   0.83008   0.21674   0.12054
H          H       0.10434   0.84059   0.85297   0.11201
H          H       0.14481   0.99760   0.32184   0.09069
H          H       0.01771   0.93644   0.36722   0.08058
H          H       0.01853   0.99085   0.45276   0.07937
H          H       0.10353   0.85207   0.02104   0.10140
H          H       0.12376   0.82314   0.05925   0.11174
H          H       0.19752   0.90704   0.23003   0.10069
H          H       0.17775   0.93251   0.17902   0.10423
H          H       0.19529   0.87154   0.24614   0.10593
H          H       0.73101   0.85329   0.61606   0.11735
H          H       0.71920   0.82808   0.67901   0.11392
H          H       0.75736   0.64752   0.10531   0.10889
H          H       0.76992   0.67312   0.04507   0.10826
H          H       0.97398   0.88761   0.95547   0.06930
H          H       0.98500   0.83224   0.86203   0.10887
H          H       0.99660   0.95747   0.25343   0.06638
H          H       0.01907   0.91169   0.04899   0.06618
H          H       0.93582   0.85366   0.29467   0.11376
H          H       0.97274   0.90942   0.89059   0.12160
H          H       0.88943   0.82110   0.20870   0.11551
H          H       0.83360   0.85965   0.13815   0.11632
H          H       0.86878   0.91445   0.22680   0.11381
H          H       0.05433   0.92385   0.17217   0.07548
H          H       0.05654   0.86962   0.08836   0.07931
H          H       0.80076   0.86873   0.28282   0.11306
H          H       0.76789   0.83513   0.28805   0.11219
H          H       0.83534   0.70260   0.96843   0.10969
H          H       0.86823   0.73644   0.96279   0.11209
H          H       0.79556   0.71623   0.08915   0.10943
H          H       0.22821   0.09754   0.77611   0.10778
H          H       0.25315   0.10284   0.66280   0.10798
H          H       0.19563   0.25969   0.07130   0.11130
H          H       0.16981   0.25287   0.17885   0.11870
H          H       0.11977   0.04137   0.83693   0.10199
H          H       0.07343   0.21787   0.17858   0.11623
H          H       0.04020   0.18396   0.68240   0.11670
H          H       0.11079   0.19085   0.99299   0.11129
H          H       0.16359   0.01876   0.99427   0.09042
H          H       0.13204   0.98903   0.51657   0.10580
H          H       0.99875   0.02807   0.84472   0.09018
H          H       0.96960   0.08408   0.99543   0.06959
H          H       0.00976   0.13699   0.14859   0.07684
H          H       0.00519   0.12893   0.02418   0.07916
H          H       0.19002   0.05967   0.52748   0.10350
H          H       0.21073   0.06942   0.92481   0.10887
H          H       0.12987   0.18300   0.70914   0.11302
H          H       0.11197   0.17096   0.80942   0.11124
H          H       0.20571   0.09898   0.88479   0.10986
H          H       0.28524   0.87013   0.65305   0.11747
H          H       0.25792   0.87306   0.54830   0.10896
H          H       0.22108   0.72123   0.68961   0.11041
H          H       0.24777   0.71846   0.79564   0.11077
H          H       0.72079   0.38624   0.85923   0.10440
H          H       0.74551   0.36885   0.92611   0.10506
H          H       0.68419   0.29264   0.30014   0.11006
H          H       0.64923   0.31087   0.75020   0.11314
H          H       0.74547   0.60233   0.72313   0.11014
H          H       0.76266   0.63457   0.68771   0.10946
H          H       0.69853   0.78871   0.15825   0.11115
H          H       0.68276   0.75905   0.20129   0.11000
H          H       0.22487   0.24761   0.79322   0.10807
H          H       0.20274   0.23642   0.89221   0.10890
H          H       0.27927   0.12703   0.63355   0.11105
H          H       0.30082   0.13593   0.52557   0.11906
H          H       0.45391   0.43457   0.78633   0.09074
H          H       0.45963   0.38636   0.72641   0.09138
H          H       0.50566   0.38019   0.64186   0.07547
H          H       0.50598   0.43135   0.86869   0.08356
H          H       0.48757   0.57298   0.06321   0.06763
H          H       0.47441   0.51155   0.84546   0.09306
H          H       0.46548   0.64010   0.63293   0.09340
H          H       0.44094   0.62999   0.68487   0.06973
H          H       0.55265   0.44071   0.41122   0.11230
H          H       0.57713   0.39375   0.38350   0.11915
H          H       0.60821   0.39978   0.50623   0.11140
H          H       0.65992   0.54038   0.91288   0.08932
H          H       0.63575   0.58837   0.94605   0.10384
H          H       0.58483   0.78650   0.86558   0.10963
H          H       0.55807   0.76138   0.91685   0.12704
H          H       0.61456   0.75332   0.15477   0.10849
H          H       0.65993   0.57616   0.61793   0.08859
H          H       0.63392   0.54672   0.65042   0.10596
H          H       0.46850   0.55109   0.61445   0.10862
H          H       0.43619   0.64046   0.83302   0.10006
H          H       0.38694   0.68699   0.96128   0.11142
H          H       0.32183   0.65513   0.04771   0.10895
H          H       0.35666   0.58419   0.90377   0.11424
H          H       0.39231   0.47606   0.82632   0.11201
H          H       0.42967   0.53627   0.96246   0.10321
H          H       0.35540   0.41810   0.62389   0.11376
H          H       0.33903   0.39608   0.83609   0.11338
H          H       0.37307   0.46797   0.48927   0.10734
H          H       0.55045   0.53817   0.85677   0.07135
H          H       0.52769   0.59774   0.60763   0.06800
H          H       0.51280   0.67204   0.72278   0.06507
H          H       0.53175   0.60971   0.96358   0.07568
H          H       0.53925   0.50411   0.40661   0.09207
H          H       0.54645   0.45181   0.83745   0.07608
H          H       0.51913   0.52058   0.62964   0.08075
H          H       0.51778   0.57535   0.71556   0.08718
H          H       0.29809   0.65187   0.92281   0.11085
H          H       0.26853   0.68959   0.92770   0.10839
H          H       0.32987   0.80578   0.69279   0.11957
H          H       0.35712   0.77354   0.20832   0.11468
H          H       0.33928   0.29193   0.62554   0.11758
H          H       0.31051   0.22836   0.52096   0.11350
H          H       0.26205   0.37699   0.54256   0.10944
H          H       0.29137   0.43970   0.64373   0.11377
H          H       0.60628   0.41294   0.67337   0.10368
H          H       0.62179   0.38396   0.71680   0.11046
H          H       0.69893   0.46116   0.88594   0.10567
H          H       0.68471   0.48387   0.82059   0.10563
H          H       0.68875   0.61713   0.66144   0.10138
H          H       0.70574   0.62425   0.54532   0.10704
H          H       0.63197   0.75182   0.88185   0.10456
H          H       0.61336   0.73935   0.98164   0.11552
H          H       0.26285   0.73643   0.95058   0.10817
H          H       0.25976   0.29681   0.89569   0.10950
H          H       0.66957   0.73899   0.74563   0.11058
H          H       0.69297   0.42280   0.89327   0.11443
H          H       0.77563   0.40026   0.76127   0.11978
H          H       0.75055   0.41657   0.69093   0.11097
H          H       0.70622   0.24910   0.75920   0.11172
H          H       0.73084   0.23694   0.84190   0.11271
H          H       0.95960   0.10478   0.92023   0.06960
H          H       0.94035   0.04710   0.78795   0.05858
H          H       0.97901   0.04861   0.63991   0.08515
H          H       0.94109   0.05271   0.66307   0.07585
H          H       0.95487   0.96162   0.65972   0.11352
H          H       0.91911   0.04818   0.89472   0.10161
H          H       0.87369   0.11525   0.63413   0.11143
H          H       0.83519   0.09817   0.81758   0.11426
H          H       0.87269   0.01588   0.60203   0.11228
H          H       0.79303   0.11815   0.78075   0.11443
H          H       0.75806   0.18224   0.89528   0.11258
H          H       0.82483   0.27917   0.08273   0.11895
H          H       0.85927   0.21502   0.96671   0.10976
H          H       0.75040   0.23636   0.93959   0.11234
H          H       0.22019   0.86576   0.81075   0.10597
H          H       0.24721   0.85674   0.89703   0.10364
H          H       0.18915   0.74666   0.68858   0.11063
H          H       0.16248   0.75359   0.59365   0.11905
H          H       0.05023   0.87015   0.71958   0.12441
H          H       0.07376   0.82973   0.71637   0.11783
H          H       0.10463   0.84152   0.35433   0.11156
H          H       0.14386   0.00017   0.82840   0.09206
H          H       0.01882   0.93700   0.86920   0.08018
H          H       0.01991   0.99079   0.95213   0.07909
H          H       0.10362   0.85458   0.52804   0.10080
H          H       0.12417   0.82577   0.56607   0.11153
H          H       0.19838   0.90720   0.72628   0.10084
H          H       0.17802   0.93327   0.67792   0.10451
H          H       0.19623   0.87276   0.74685   0.10606
H          H       0.73290   0.84973   0.10958   0.11515
H          H       0.72173   0.82327   0.16859   0.11514
H          H       0.75897   0.64266   0.59046   0.10986
H          H       0.77082   0.66952   0.53417   0.10789
H          H       0.97480   0.88041   0.43803   0.07362
H          H       0.98614   0.82778   0.35580   0.10957
H          H       0.99726   0.95398   0.74290   0.06659
H          H       0.01981   0.90708   0.53657   0.06669
H          H       0.93737   0.84906   0.78261   0.11107
H          H       0.97108   0.91428   0.40334   0.12066
H          H       0.89055   0.81777   0.70095   0.11572
H          H       0.83494   0.85695   0.63182   0.11710
H          H       0.87006   0.91256   0.72400   0.11376
H          H       0.05507   0.92266   0.66855   0.07539
H          H       0.05785   0.86940   0.58892   0.07951
H          H       0.80196   0.86636   0.77739   0.11388
H          H       0.76895   0.83311   0.78368   0.11357
H          H       0.83623   0.70036   0.46397   0.11063
H          H       0.86924   0.73383   0.45729   0.11197
H          H       0.79635   0.71301   0.58019   0.10938
C          C       0.26791   0.79633   0.99221   0.06242
C          C       0.26909   0.20384   0.19202   0.06208
C          C       0.68963   0.36429   0.33471   0.06754
C          C       0.26979   0.84037   0.06324  -0.13787
C          C       0.25441   0.84185   0.00255  -0.12832
C          C       0.23652   0.79757   0.36130   0.05880
C          C       0.23367   0.75554   0.29847  -0.13010
C          C       0.24897   0.75429   0.36005  -0.13681
C          C       0.71462   0.38899   0.41697  -0.13056
C          C       0.72861   0.37842   0.45342  -0.13210
C          C       0.71827   0.34341   0.41240   0.05833
C          C       0.68450   0.31411   0.82817  -0.12720
C          C       0.67963   0.32824   0.28977  -0.13847
C          C       0.70977   0.68400   0.48130   0.06718
C          C       0.73330   0.65122   0.34245  -0.14518
C          C       0.74295   0.66890   0.31998  -0.12864
C          C       0.72923   0.71956   0.43218   0.06030
C          C       0.70608   0.75280   0.57320  -0.11890
C          C       0.69671   0.73588   0.59819  -0.12733
C          C       0.23971   0.22346   0.26479  -0.13821
C          C       0.22606   0.21770   0.32176  -0.12828
C          C       0.24097   0.19209   0.30903   0.05766
C          C       0.27010   0.17008   0.22811  -0.12962
C          C       0.28382   0.17533   0.16922  -0.13456
C          C       0.46507   0.43418   0.32830  -0.00318
C          C       0.49715   0.42658   0.28699  -0.02553
C          C       0.48018   0.56741   0.49555  -0.02328
C          C       0.45637   0.60667   0.57214  -0.01543
C          C       0.59932   0.47462   0.14155   0.05476
C          C       0.60553   0.53011   0.27083   0.04796
C          C       0.58848   0.55901   0.29828  -0.07706
C          C       0.56824   0.52891   0.18012   0.20252
C          C       0.56336   0.47240   0.04403  -0.21487
C          C       0.57811   0.44654   0.02823  -0.10540
C          C       0.61358   0.45033   0.13478  -0.18404
C          C       0.63496   0.47692   0.24178   0.05412
C          C       0.64357   0.52705   0.34749  -0.12203
C          C       0.62890   0.55417   0.36774  -0.12296
C          C       0.58999   0.62189   0.45882  -0.05539
C          C       0.60732   0.63631   0.43339   0.04766
C          C       0.60484   0.69601   0.57865   0.06511
C          C       0.58625   0.73623   0.24463  -0.13184
C          C       0.57185   0.71969   0.26436  -0.19586
C          C       0.57425   0.65942   0.11135   0.19872
C          C       0.61950   0.70772   0.54017  -0.19008
C          C       0.63761   0.66338   0.36915   0.06004
C          C       0.64278   0.60677   0.23953  -0.12815
C          C       0.62755   0.59281   0.26637  -0.11895
C          C       0.39978   0.61824   0.34760   0.06461
C          C       0.39098   0.58905   0.33272   0.03947
C          C       0.41019   0.54208   0.22555  -0.06753
C          C       0.43589   0.52235   0.12476   0.20503
C          C       0.44530   0.55362   0.14961  -0.21541
C          C       0.42790   0.60195   0.26494  -0.11864
C          C       0.37998   0.65995   0.43418  -0.18169
C          C       0.35172   0.67273   0.50219   0.05518
C          C       0.34368   0.64700   0.50003  -0.13432
C          C       0.36283   0.60746   0.42159  -0.12756
C          C       0.40520   0.52070   0.24393  -0.07563
C          C       0.38475   0.48304   0.15868   0.04149
C          C       0.37899   0.47236   0.20932   0.05862
C          C       0.39457   0.49795   0.33783  -0.11177
C          C       0.41550   0.53164   0.41103  -0.22236
C          C       0.42112   0.54271   0.36297   0.21139
C          C       0.35793   0.43666   0.12982  -0.18452
C          C       0.34348   0.40928   0.99732   0.05002
C          C       0.35011   0.41782   0.94113  -0.13970
C          C       0.36974   0.45455   0.02234  -0.13748
C          C       0.52895   0.58312   0.50389  -0.01990
C          C       0.53227   0.62316   0.06351  -0.01374
C          C       0.53011   0.48845   0.92991  -0.03293
C          C       0.52632   0.53821   0.13611  -0.02282
C          C       0.64707   0.45743   0.25818   0.08199
C          C       0.64982   0.67156   0.31260   0.08052
C          C       0.33101   0.70575   0.54965   0.08193
C          C       0.32302   0.36675   0.39005   0.07955
C          C       0.30417   0.68754   0.49042  -0.13694
C          C       0.28776   0.70843   0.49148  -0.11889
C          C       0.29714   0.74897   0.55372   0.08536
C          C       0.32252   0.77219   0.63349  -0.12338
C          C       0.33892   0.75092   0.63098  -0.13272
C          C       0.33014   0.30473   0.20913  -0.13474
C          C       0.31416   0.26935   0.15329  -0.11852
C          C       0.29012   0.29519   0.27711   0.09205
C          C       0.28480   0.36234   0.99649  -0.12433
C          C       0.30149   0.39762   0.05507  -0.14909
C          C       0.63054   0.43108   0.24031  -0.13041
C          C       0.64055   0.41614   0.26860  -0.12244
C          C       0.66756   0.42878   0.32293   0.09319
C          C       0.68378   0.45684   0.34656  -0.11729
C          C       0.67419   0.46904   0.30920  -0.12879
C          C       0.67596   0.63884   0.18782  -0.12207
C          C       0.68644   0.64231   0.12055  -0.11537
C          C       0.67157   0.68063   0.18012   0.09016
C          C       0.64572   0.71469   0.30938  -0.12175
C          C       0.63489   0.70960   0.37154  -0.13709
C          C       0.28103   0.76037   0.51977  -0.13880
C          C       0.28514   0.79515   0.05625  -0.01828
C          C       0.30666   0.83308   0.16038   0.24197
C          C       0.27569   0.26652   0.25782  -0.13936
C          C       0.28454   0.21694   0.15504  -0.00368
C          C       0.31049   0.17917   0.02286   0.23900
C          C       0.68165   0.68993   0.12695  -0.12242
C          C       0.69994   0.66448   0.50305  -0.01284
C          C       0.71264   0.60688   0.35672   0.25713
C          C       0.67999   0.41549   0.35725  -0.12326
C          C       0.67423   0.37467   0.29412  -0.01153
C          C       0.64215   0.33453   0.68241   0.25283
C          C       0.75479   0.31067   0.03442   0.06091
C          C       0.75225   0.76588   0.32787   0.06375
C          C       0.18803   0.80888   0.19184   0.06666
C          C       0.75927   0.35616   0.11342  -0.13694
C          C       0.74540   0.36242   0.06382  -0.12482
C          C       0.72605   0.32417   0.93465   0.06327
C          C       0.73004   0.28436   0.36025  -0.12958
C          C       0.74403   0.27525   0.40116  -0.12831
C          C       0.21263   0.83667   0.27496  -0.13606
C          C       0.22831   0.83180   0.32522  -0.12949
C          C       0.22044   0.79925   0.29675   0.05282
C          C       0.19618   0.77058   0.21034  -0.12621
C          C       0.18043   0.77518   0.15911  -0.13356
C          C       0.19448   0.17935   0.49808   0.06260
C          C       0.21982   0.14061   0.36386  -0.13397
C          C       0.23512   0.14507   0.30480  -0.13162
C          C       0.22596   0.18840   0.37651   0.06250
C          C       0.20115   0.22807   0.51457  -0.12228
C          C       0.18579   0.22357   0.57319  -0.13649
C          C       0.73703   0.80814   0.50406  -0.13630
C          C       0.73017   0.79357   0.53889  -0.12648
C          C       0.73761   0.73580   0.39852   0.06058
C          C       0.75227   0.69333   0.22092  -0.12855
C          C       0.75944   0.70786   0.18621  -0.13437
C          C       0.97922   0.88007   0.99374  -0.00511
C          C       0.00436   0.91123   0.10103  -0.01771
C          C       0.96078   0.05292   0.27279  -0.02701
C          C       0.96198   0.03079   0.12493  -0.01476
C          C       0.09460   0.90651   0.95742   0.05315
C          C       0.09880   0.96422   0.09650   0.04450
C          C       0.08422   0.98832   0.10275  -0.07436
C          C       0.06755   0.95357   0.96383   0.21392
C          C       0.06293   0.89670   0.32594  -0.22056
C          C       0.07632   0.87432   0.32465  -0.11965
C          C       0.10792   0.88431   0.95937  -0.18363
C          C       0.12576   0.91632   0.08946   0.04763
C          C       0.13088   0.97201   0.21964  -0.12741
C          C       0.11761   0.99574   0.22575  -0.12841
C          C       0.08367   0.05155   0.26370  -0.06405
C          C       0.10430   0.07104   0.26511   0.04947
C          C       0.09992   0.13055   0.40924   0.05943
C          C       0.07702   0.17116   0.56252  -0.11375
C          C       0.05765   0.15254   0.56428  -0.22469
C          C       0.06012   0.09207   0.40968   0.20563
C          C       0.11702   0.14578   0.38704  -0.18078
C          C       0.13862   0.10500   0.23208   0.04460
C          C       0.14559   0.04979   0.10895  -0.13198
C          C       0.12875   0.03251   0.12130  -0.12422
C          C       0.89501   0.04621   0.50131   0.05624
C          C       0.89489   0.01567   0.48546   0.03751
C          C       0.91628   0.96606   0.35063  -0.08455
C          C       0.93637   0.94719   0.23274   0.20941
C          C       0.93689   0.97915   0.25510  -0.22190
C          C       0.91657   0.02734   0.38627  -0.11673
C          C       0.87605   0.09230   0.12492  -0.18358
C          C       0.85377   0.11147   0.23654   0.05225
C          C       0.85328   0.08193   0.22358  -0.13255
C          C       0.87416   0.03552   0.10344  -0.14618
C          C       0.91973   0.93596   0.33892  -0.06510
C          C       0.89944   0.90156   0.27592   0.04067
C          C       0.90539   0.87242   0.26314   0.06803
C          C       0.93154   0.87662   0.30738  -0.12509
C          C       0.95088   0.90963   0.36700  -0.19248
C          C       0.94473   0.93990   0.38567   0.20581
C          C       0.88492   0.84056   0.20922  -0.18142
C          C       0.85887   0.83655   0.16864   0.05452
C          C       0.85349   0.86383   0.17527  -0.13619
C          C       0.87323   0.89459   0.22488  -0.13048
C          C       0.99107   0.05834   0.39163  -0.02107
C          C       0.01166   0.10287   0.50182  -0.01799
C          C       0.04219   0.90557   0.16861  -0.02474
C          C       0.03141   0.95347   0.36992  -0.01633
C          C       0.13875   0.89558   0.10045   0.08706
C          C       0.15163   0.11428   0.18006   0.08160
C          C       0.83174   0.15904   0.35144   0.07919
C          C       0.83757   0.80797   0.13412   0.07704
C          C       0.80250   0.15349   0.34105  -0.14021
C          C       0.78372   0.19085   0.40770  -0.12228
C          C       0.79317   0.23581   0.48996   0.08834
C          C       0.82176   0.24590   0.52238  -0.12462
C          C       0.84046   0.20813   0.45346  -0.13777
C          C       0.80847   0.83226   0.21368  -0.12959
C          C       0.78983   0.81350   0.21798  -0.11605
C          C       0.79956   0.76885   0.14043   0.09069
C          C       0.82780   0.73950   0.03922  -0.12516
C          C       0.84639   0.75875   0.03702  -0.14349
C          C       0.12448   0.86307   0.06285  -0.12833
C          C       0.13591   0.84678   0.08509  -0.11772
C          C       0.16246   0.86287   0.14829   0.08709
C          C       0.17681   0.89514   0.18465  -0.11688
C          C       0.16554   0.91014   0.15831  -0.13095
C          C       0.17893   0.08593   0.06983  -0.13395
C          C       0.18677   0.09238   0.50669  -0.12092
C          C       0.17081   0.12853   0.55981   0.08918
C          C       0.14558   0.15257   0.16031  -0.12021
C          C       0.13527   0.14718   0.22181  -0.12542
C          C       0.77445   0.26272   0.51188  -0.13946
C          C       0.77213   0.30124   0.07414  -0.00911
C          C       0.79322   0.33973   0.18959   0.24682
C          C       0.78451   0.75411   0.17027  -0.13684
C          C       0.76106   0.78341   0.29853  -0.00816
C          C       0.74497   0.83540   0.42172   0.24867
C          C       0.18391   0.13455   0.49910  -0.12987
C          C       0.17749   0.17628   0.56493  -0.01053
C          C       0.15429   0.22306   0.71548   0.24940
C          C       0.17639   0.84977   0.18061  -0.12974
C          C       0.17060   0.81487   0.14196  -0.01311
C          C       0.14739   0.78129   0.04782   0.25078
C          C       0.26811   0.79520   0.48861   0.06028
C          C       0.26501   0.19510   0.66021   0.06451
C          C       0.68244   0.35168   0.80490   0.06443
C          C       0.27078   0.83763   0.55319  -0.13774
C          C       0.25534   0.83884   0.49181  -0.12787
C          C       0.23645   0.79928   0.86621   0.05967
C          C       0.23442   0.75554   0.79654  -0.12653
C          C       0.24969   0.75397   0.85732  -0.13481
C          C       0.70995   0.36728   0.85431  -0.13391
C          C       0.72407   0.35731   0.89233  -0.13228
C          C       0.71156   0.33134   0.88328   0.05790
C          C       0.69346   0.31840   0.32875  -0.12659
C          C       0.67037   0.32377   0.78905  -0.13264
C          C       0.71233   0.67714   0.96268   0.06404
C          C       0.73510   0.64341   0.81931  -0.14389
C          C       0.74472   0.66164   0.79858  -0.12712
C          C       0.73172   0.71391   0.91736   0.06072
C          C       0.70947   0.74821   0.06348  -0.11741
C          C       0.70019   0.73076   0.08675  -0.12500
C          C       0.23710   0.22238   0.76225  -0.13779
C          C       0.22471   0.21629   0.81952  -0.12764
C          C       0.23961   0.18334   0.78033   0.05556
C          C       0.26699   0.15339   0.66883  -0.13161
C          C       0.27936   0.15846   0.60769  -0.13658
C          C       0.46458   0.42815   0.82164  -0.00575
C          C       0.49665   0.42462   0.79419  -0.02709
C          C       0.48220   0.55355   0.95234  -0.02155
C          C       0.45871   0.59659   0.04406  -0.01722
C          C       0.60123   0.46591   0.61010   0.05634
C          C       0.60728   0.52248   0.74593   0.04479
C          C       0.59119   0.55179   0.77292  -0.07210
C          C       0.57205   0.52140   0.64936   0.20111
C          C       0.56756   0.46374   0.50611  -0.21235
C          C       0.58133   0.43725   0.48990  -0.10713
C          C       0.61417   0.44142   0.60485  -0.18445
C          C       0.63396   0.46926   0.72116   0.05641
C          C       0.64278   0.52042   0.83298  -0.12321
C          C       0.62944   0.54742   0.85062  -0.12106
C          C       0.59196   0.61554   0.93946  -0.05644
C          C       0.60869   0.63298   0.92332   0.04882
C          C       0.60487   0.69339   0.07327   0.06442
C          C       0.58681   0.74111   0.75434  -0.13235
C          C       0.57182   0.72745   0.78292  -0.19513
C          C       0.57305   0.66798   0.63513   0.20048
C          C       0.61896   0.70809   0.04391  -0.19026
C          C       0.63767   0.66598   0.87718   0.06030
C          C       0.64403   0.60872   0.74309  -0.12857
C          C       0.62955   0.59194   0.76138  -0.11909
C          C       0.40053   0.62423   0.86601   0.06392
C          C       0.39179   0.59110   0.83630   0.04075
C          C       0.41142   0.54376   0.72582  -0.06659
C          C       0.43766   0.52819   0.63750   0.20705
C          C       0.44700   0.56352   0.67826  -0.20966
C          C       0.42906   0.61188   0.79602  -0.12188
C          C       0.38026   0.66571   0.95320  -0.17975
C          C       0.35172   0.67484   0.00875   0.05504
C          C       0.34375   0.64576   0.99437  -0.13120
C          C       0.36325   0.60610   0.91419  -0.13115
C          C       0.40639   0.51821   0.72993  -0.07883
C          C       0.38546   0.48073   0.64242   0.03894
C          C       0.38029   0.46543   0.67841   0.06119
C          C       0.39651   0.48690   0.79671  -0.11110
C          C       0.41759   0.52085   0.87339  -0.22211
C          C       0.42275   0.53635   0.83949   0.21127
C          C       0.35923   0.42898   0.59426  -0.18640
C          C       0.34393   0.40575   0.47232   0.05226
C          C       0.34939   0.41990   0.43366  -0.14236
C          C       0.36929   0.45686   0.51814  -0.14068
C          C       0.53087   0.56960   0.96073  -0.01941
C          C       0.53039   0.63588   0.60284  -0.01404
C          C       0.53228   0.48683   0.41332  -0.03122
C          C       0.53021   0.53441   0.61551  -0.02194
C          C       0.64434   0.44993   0.74027   0.07967
C          C       0.64939   0.67662   0.82793   0.07857
C          C       0.33079   0.70734   0.05489   0.08182
C          C       0.32221   0.37247   0.92339   0.07995
C          C       0.30457   0.68695   0.98731  -0.13621
C          C       0.28813   0.70769   0.98796  -0.11792
C          C       0.29693   0.74994   0.05691   0.08502
C          C       0.32158   0.77518   0.14457  -0.12221
C          C       0.33794   0.75429   0.14345  -0.13261
C          C       0.32383   0.31168   0.72940  -0.13236
C          C       0.30763   0.27575   0.67041  -0.11564
C          C       0.28863   0.30016   0.80463   0.09145
C          C       0.28117   0.35665   0.44862  -0.12480
C          C       0.29754   0.39192   0.50552  -0.14818
C          C       0.62721   0.42129   0.71195  -0.13244
C          C       0.63591   0.40520   0.73803  -0.12151
C          C       0.66228   0.41828   0.79852   0.09398
C          C       0.67889   0.44918   0.83451  -0.11695
C          C       0.67048   0.46323   0.80170  -0.12694
C          C       0.67555   0.64493   0.70436  -0.12241
C          C       0.68546   0.64955   0.64020  -0.11651
C          C       0.67011   0.68835   0.70276   0.09079
C          C       0.64442   0.72202   0.83280  -0.12293
C          C       0.63407   0.71551   0.89103  -0.13591
C          C       0.28095   0.76100   0.02165  -0.13827
C          C       0.28548   0.79381   0.55176  -0.01698
C          C       0.30756   0.83038   0.65091   0.24274
C          C       0.27473   0.26798   0.77217  -0.13591
C          C       0.27933   0.21044   0.62909  -0.00474
C          C       0.29866   0.16575   0.45755   0.24161
C          C       0.67980   0.69796   0.65016  -0.12428
C          C       0.70233   0.65713   0.98260  -0.01194
C          C       0.71517   0.59991   0.83821   0.25743
C          C       0.67413   0.40213   0.82447  -0.12706
C          C       0.66648   0.36426   0.77197  -0.01247
C          C       0.65304   0.33722   0.17637   0.25082
C          C       0.76118   0.31618   0.54462   0.05928
C          C       0.75358   0.76238   0.81935   0.06480
C          C       0.18863   0.81080   0.69576   0.06593
C          C       0.76291   0.36728   0.64780  -0.13582
C          C       0.74889   0.37617   0.60621  -0.12542
C          C       0.73244   0.33455   0.45933   0.06401
C          C       0.72093   0.27980   0.86014  -0.13004
C          C       0.73498   0.27297   0.90778  -0.13041
C          C       0.21286   0.83963   0.78334  -0.13556
C          C       0.22833   0.83471   0.83393  -0.12983
C          C       0.22056   0.80122   0.80196   0.05242
C          C       0.19662   0.77174   0.71193  -0.12519
C          C       0.18115   0.77626   0.65990  -0.13397
C          C       0.19627   0.17402   0.98440   0.06638
C          C       0.22053   0.13300   0.84084  -0.13374
C          C       0.23498   0.13634   0.77709  -0.13114
C          C       0.22610   0.18083   0.85331   0.06246
C          C       0.20269   0.22316   0.00246  -0.12146
C          C       0.18807   0.21968   0.06521  -0.13909
C          C       0.73885   0.80429   0.99571  -0.13454
C          C       0.73239   0.78900   0.02837  -0.12570
C          C       0.73976   0.73084   0.88575   0.05986
C          C       0.75392   0.68875   0.70797  -0.12795
C          C       0.76067   0.70398   0.67535  -0.13487
C          C       0.98021   0.87521   0.48342  -0.00712
C          C       0.00526   0.90749   0.59162  -0.01837
C          C       0.96014   0.05621   0.78117  -0.02490
C          C       0.96103   0.03402   0.63314  -0.01338
C          C       0.09417   0.90750   0.45952   0.05215
C          C       0.09791   0.96548   0.59953   0.04458
C          C       0.08309   0.98924   0.60505  -0.07375
C          C       0.06646   0.95417   0.46558   0.21376
C          C       0.06360   0.89634   0.82497  -0.22116
C          C       0.07665   0.87377   0.82356  -0.11639
C          C       0.10784   0.88549   0.46161  -0.18385
C          C       0.12558   0.91793   0.59272   0.04771
C          C       0.13011   0.97411   0.72479  -0.12595
C          C       0.11648   0.99759   0.73053  -0.12804
C          C       0.08237   0.05238   0.76519  -0.06402
C          C       0.10286   0.07172   0.76553   0.04959
C          C       0.09850   0.13121   0.90956   0.05890
C          C       0.07572   0.17191   0.06350  -0.11334
C          C       0.05639   0.15342   0.06586  -0.22535
C          C       0.05889   0.09300   0.91175   0.20457
C          C       0.11548   0.14647   0.88719  -0.17774
C          C       0.13695   0.10570   0.73155   0.04540
C          C       0.14394   0.05044   0.60832  -0.13265
C          C       0.12726   0.03322   0.62126  -0.12473
C          C       0.89706   0.04375   0.99601   0.05656
C          C       0.89639   0.01336   0.98073   0.03715
C          C       0.91758   0.96345   0.84576  -0.08478
C          C       0.93775   0.94384   0.72612   0.20944
C          C       0.93876   0.97555   0.74765  -0.22259
C          C       0.91876   0.02422   0.87964  -0.11853
C          C       0.87360   0.09421   0.62970  -0.18404
C          C       0.85170   0.11292   0.74130   0.05393
C          C       0.85183   0.08339   0.72834  -0.13253
C          C       0.87297   0.03720   0.60748  -0.14609
C          C       0.92093   0.93340   0.83427  -0.06536
C          C       0.90065   0.89899   0.77113   0.04039
C          C       0.90667   0.86924   0.75616   0.06820
C          C       0.93300   0.87255   0.79729  -0.12008
C          C       0.95237   0.90553   0.85688  -0.19417
C          C       0.94608   0.93662   0.87859   0.20548
C          C       0.88611   0.83745   0.70219  -0.18221
C          C       0.86006   0.83371   0.66216   0.05643
C          C       0.85474   0.86120   0.66949  -0.13786
C          C       0.87448   0.89222   0.72040  -0.13022
C          C       0.98967   0.06086   0.89901  -0.02139
C          C       0.01059   0.10462   0.00656  -0.01866
C          C       0.04325   0.90477   0.66710  -0.02488
C          C       0.03260   0.95336   0.86961  -0.01545
C          C       0.13893   0.89710   0.60304   0.08696
C          C       0.14971   0.11559   0.68104   0.08162
C          C       0.82911   0.15977   0.85565   0.07571
C          C       0.83866   0.80533   0.62814   0.07668
C          C       0.79992   0.15396   0.84937  -0.14026
C          C       0.78025   0.18995   0.91316  -0.12341
C          C       0.78875   0.23385   0.98904   0.09077
C          C       0.81744   0.24435   0.01752  -0.12196
C          C       0.83701   0.20791   0.95131  -0.13770
C          C       0.80958   0.82987   0.70828  -0.13021
C          C       0.79087   0.81130   0.71307  -0.11608
C          C       0.80051   0.76651   0.63504   0.09018
C          C       0.82875   0.73710   0.53398  -0.12583
C          C       0.84740   0.75617   0.53136  -0.14356
C          C       0.12473   0.86507   0.56753  -0.12895
C          C       0.13638   0.84876   0.58942  -0.11713
C          C       0.16318   0.86413   0.64950   0.08712
C          C       0.17749   0.89580   0.68328  -0.11705
C          C       0.16592   0.91105   0.65809  -0.12919
C          C       0.17664   0.08640   0.56667  -0.13478
C          C       0.18936   0.09095   0.00714  -0.12016
C          C       0.17323   0.12515   0.05310   0.08733
C          C       0.14358   0.15705   0.67201  -0.12054
C          C       0.13348   0.15051   0.73014  -0.12771
C          C       0.76922   0.25861   0.00564  -0.13822
C          C       0.77871   0.30437   0.57689  -0.01006
C          C       0.80161   0.33863   0.67709   0.24373
C          C       0.78543   0.75143   0.66363  -0.13739
C          C       0.76214   0.78067   0.79240  -0.00618
C          C       0.74622   0.83325   0.91834   0.24956
C          C       0.18649   0.13059   0.99078  -0.12899
C          C       0.17974   0.17162   0.05395  -0.01301
C          C       0.15659   0.21851   0.20509   0.24857
C          C       0.17725   0.85114   0.68207  -0.12971
C          C       0.17142   0.81654   0.64463  -0.01208
C          C       0.14832   0.78266   0.54943   0.24934
N          N       0.32358   0.86590   0.24836  -0.37250
N          N       0.33157   0.14673   0.91182  -0.37344
N          N       0.62226   0.30931   0.60990  -0.39193
N          N       0.72331   0.55872   0.22946  -0.38853
N          N       0.80946   0.37374   0.29079  -0.38195
N          N       0.73103   0.87803   0.52481  -0.38568
N          N       0.12879   0.75239   0.96882  -0.38414
N          N       0.13590   0.26308   0.84107  -0.38565
N          N       0.32502   0.86196   0.73469  -0.37506
N          N       0.31381   0.12762   0.31220  -0.37893
N          N       0.63607   0.30503   0.07809  -0.39368
N          N       0.72568   0.55199   0.71344  -0.38665
N          N       0.81963   0.36890   0.76396  -0.38042
N          N       0.73254   0.87642   0.02354  -0.38599
N          N       0.12991   0.75328   0.46895  -0.38355
N          N       0.13840   0.25887   0.33202  -0.38356
O          O       0.45297   0.47415   0.01194  -0.21812
O          O       0.50565   0.55191   0.39956  -0.22849
O          O       0.55867   0.64610   0.14077  -0.23489
O          O       0.44153   0.57591   0.43013  -0.18836
O          O       0.50437   0.47105   0.36155  -0.22644
O          O       0.55295   0.55777   0.20755  -0.20276
O          O       0.95436   0.89588   0.09390  -0.18905
O          O       0.98576   0.02692   0.23213  -0.22106
O          O       0.03975   0.06952   0.39233  -0.19431
O          O       0.96713   0.96717   0.93315  -0.22695
O          O       0.01878   0.87896   0.06687  -0.22627
O          O       0.05563   0.97856   0.97274  -0.19219
O          O       0.45577   0.47987   0.51991  -0.22469
O          O       0.50736   0.53905   0.85797  -0.22821
O          O       0.55715   0.65812   0.67553  -0.23595
O          O       0.44313   0.57065   0.91322  -0.18585
O          O       0.50311   0.46840   0.86483  -0.22660
O          O       0.55748   0.55096   0.67802  -0.20388
O          O       0.95541   0.89214   0.58672  -0.18934
O          O       0.98443   0.02870   0.73780  -0.21927
O          O       0.03858   0.07085   0.89636  -0.19410
O          O       0.96571   0.97050   0.44004  -0.22781
O          O       0.01987   0.87720   0.56443  -0.22631
O          O       0.05424   0.97917   0.47489  -0.19321

