data_crystal

_audit_creation_method 'AiiDA-DDEC plugin'

_cell_length_a        23.43821
_cell_length_b        45.27130
_cell_length_c        18.42535

_cell_angle_alpha     90.10414
_cell_angle_beta     116.36208
_cell_angle_gamma     90.23628

_symmetry_space_group_name_Hall 'P 1'
_symmetry_space_group_name_H-M  'P 1'

loop_
_symmetry_equiv_pos_as_xyz
 'x,y,z'

loop_
_atom_site_label
_atom_site_type_symbol
_atom_site_fract_x
_atom_site_fract_y
_atom_site_fract_z
_atom_site_charge
H          H       0.82048   0.58798   0.86621   0.06807
H          H       0.82019   0.41195   0.37531   0.07180
H          H       0.31918   0.08652   0.87726   0.07187
H          H       0.31493   0.91224   0.37050   0.07014
H          H       0.98400   0.49631   0.80779   0.11023
H          H       0.98710   0.50581   0.32905   0.11189
H          H       0.48637   0.99428   0.82949   0.11230
H          H       0.48062   0.00315   0.31049   0.11109
H          H       0.18575   0.60833   0.51629   0.10459
H          H       0.18351   0.39246   0.02148   0.10509
H          H       0.68295   0.10667   0.52609   0.10521
H          H       0.68000   0.89127   0.01409   0.10450
H          H       0.19864   0.52707   0.64277   0.10037
H          H       0.19996   0.47532   0.14360   0.10063
H          H       0.69874   0.02333   0.64515   0.10138
H          H       0.69332   0.97316   0.13933   0.10201
H          H       0.31630   0.52725   0.69261   0.10873
H          H       0.31777   0.47451   0.19272   0.10898
H          H       0.81657   0.02479   0.69481   0.10848
H          H       0.81125   0.97308   0.18997   0.11009
H          H       0.30272   0.60863   0.56552   0.10675
H          H       0.30053   0.39152   0.07002   0.10632
H          H       0.79983   0.10760   0.57255   0.10752
H          H       0.79696   0.89142   0.06292   0.10761
H          H       0.08763   0.58334   0.50208   0.06790
H          H       0.08762   0.41724   0.00954   0.06451
H          H       0.58806   0.08227   0.51437   0.06201
H          H       0.58280   0.91503   0.00268   0.06629
H          H       0.73571   0.58015   0.44419   0.10699
H          H       0.72991   0.42273   0.94550   0.10565
H          H       0.23073   0.07915   0.44169   0.10686
H          H       0.22763   0.91996   0.93783   0.10432
H          H       0.68362   0.58653   0.00743   0.06376
H          H       0.68621   0.41254   0.51897   0.06499
H          H       0.18595   0.08683   0.02041   0.06466
H          H       0.18413   0.91357   0.51729   0.06460
H          H       0.87272   0.50185   0.78660   0.11222
H          H       0.87518   0.49934   0.30375   0.11388
H          H       0.37478  -0.00017   0.80519   0.11395
H          H       0.36899   0.99752   0.28812   0.11280
H          H       0.92524   0.49174   0.56583   0.11232
H          H       0.92666   0.50873   0.07531   0.11122
H          H       0.41981   0.99081   0.56608   0.11229
H          H       0.41971   0.00804   0.05808   0.11285
H          H       0.55056   0.61231   0.61696   0.10529
H          H       0.54249   0.38437   0.12001   0.10278
H          H       0.04359   0.11548   0.62331   0.10467
H          H       0.04225   0.88606   0.11593   0.10391
H          H       0.48197   0.52431   0.53514   0.10845
H          H       0.48785   0.47326   0.03810   0.10996
H          H       0.98253   0.02779   0.53099   0.11007
H          H       0.97903   0.97388   0.03063   0.10914
H          H       0.53276   0.52548   0.44283   0.10043
H          H       0.54124   0.46917   0.94877   0.10148
H          H       0.03338   0.03326   0.43914   0.10259
H          H       0.02983   0.97062   0.93853   0.10028
H          H       0.59281   0.57027   0.43634   0.10601
H          H       0.59512   0.42237   0.94381   0.10551
H          H       0.08845   0.08029   0.43731   0.10651
H          H       0.08691   0.92480   0.93378   0.10590
H          H       0.60034   0.61386   0.52291   0.09656
H          H       0.59437   0.37973   0.02853   0.09992
H          H       0.09244   0.12159   0.52887   0.09986
H          H       0.09208   0.88233   0.02222   0.09959
H          H       0.88151   0.57950   0.46841   0.10846
H          H       0.88088   0.42285   0.96381   0.10922
H          H       0.38193   0.07872   0.46853   0.10961
H          H       0.37638   0.91911   0.96745   0.10900
H          H       0.79022   0.74762   0.82075   0.10614
H          H       0.80227   0.24461   0.32848   0.10582
H          H       0.30500   0.25230   0.83608   0.10511
H          H       0.29457   0.75069   0.32127   0.10607
H          H       0.60745   0.60990   0.81400   0.10559
H          H       0.60721   0.38895   0.32125   0.10623
H          H       0.10595   0.10807   0.82484   0.10617
H          H       0.10069   0.89019   0.31572   0.10611
H          H       0.59488   0.52477   0.70308   0.10926
H          H       0.59355   0.47174   0.19998   0.10833
H          H       0.09130   0.02739   0.69352   0.10844
H          H       0.08917   0.97288   0.19513   0.10869
H          H       0.71242   0.52524   0.75127   0.10018
H          H       0.71128   0.47204   0.24911   0.10152
H          H       0.20925   0.02772   0.74304   0.10100
H          H       0.20702   0.97260   0.24470   0.10102
H          H       0.72389   0.61053   0.86003   0.10662
H          H       0.72371   0.38886   0.36694   0.10706
H          H       0.22260   0.10857   0.87212   0.10780
H          H       0.21744   0.88983   0.36394   0.10666
H          H       0.76546   0.86930   0.88681   0.10403
H          H       0.77024   0.12826   0.41030   0.10129
H          H       0.27429   0.37034   0.90869   0.10214
H          H       0.27064   0.63144   0.39168   0.10329
H          H       0.56118   0.86717   0.77042   0.11453
H          H       0.56996   0.13374   0.25329   0.11576
H          H       0.07227   0.36500   0.76082   0.11503
H          H       0.06643   0.63323   0.27148   0.11485
H          H       0.56305   0.81282   0.79574   0.10377
H          H       0.57378   0.18815   0.27866   0.10375
H          H       0.07526   0.31085   0.78740   0.10353
H          H       0.06893   0.68760   0.29751   0.10369
H          H       0.76765   0.81499   0.91067   0.11086
H          H       0.77430   0.18257   0.43576   0.11044
H          H       0.27737   0.31623   0.93486   0.10949
H          H       0.27342   0.68574   0.41663   0.11034
H          H       0.24033   0.51982   0.25693   0.07438
H          H       0.24141   0.48126   0.76004   0.07289
H          H       0.73308   0.01998   0.25945   0.07248
H          H       0.73863   0.97943   0.75294   0.07455
H          H       0.63219   0.66186   0.66169   0.10690
H          H       0.62995   0.34436   0.18525   0.10545
H          H       0.12569   0.15431   0.69142   0.10273
H          H       0.12721   0.84249   0.17936   0.10371
H          H       0.61429   0.70315   0.73843   0.11242
H          H       0.61551   0.30223   0.26247   0.11070
H          H       0.11388   0.19631   0.77132   0.11084
H          H       0.11336   0.80045   0.25744   0.11078
H          H       0.71269   0.84662   0.15334   0.11251
H          H       0.71591   0.15977   0.67068   0.11357
H          H       0.21498   0.34522   0.16460   0.11222
H          H       0.22099   0.65363   0.65922   0.11287
H          H       0.30980   0.61619   0.85944   0.10839
H          H       0.31000   0.38502   0.36795   0.10779
H          H       0.81293   0.11252   0.87174   0.10755
H          H       0.79903   0.88746   0.35708   0.10826
H          H       0.31970   0.57464   0.95281   0.10476
H          H       0.31976   0.42830   0.45652   0.10517
H          H       0.82551   0.06999   0.96335   0.10537
H          H       0.81173   0.93024   0.44831   0.10457
H          H       0.37968   0.52948   0.95125   0.10045
H          H       0.38007   0.47305   0.45021   0.09937
H          H       0.88302   0.02493   0.95408   0.09873
H          H       0.87549   0.97412   0.44515   0.10004
H          H       0.42982   0.52609   0.85823   0.10891
H          H       0.42964   0.47431   0.35632   0.10699
H          H       0.92901   0.02292   0.85660   0.10733
H          H       0.92646   0.97482   0.35279   0.10749
H          H       0.35960   0.61245   0.76587   0.10766
H          H       0.35908   0.38664   0.27322   0.11016
H          H       0.85821   0.11011   0.77327   0.11088
H          H       0.84880   0.88865   0.26324   0.10987
H          H       0.71138   0.44444   0.44414   0.10118
H          H       0.71595   0.55671   0.94184   0.09834
H          H       0.21425   0.94346   0.44512   0.09945
H          H       0.20990   0.05539   0.94550   0.10026
H          H       0.72970   0.49496   0.41323   0.10537
H          H       0.73612   0.50672   0.91032   0.10422
H          H       0.23261   0.99356   0.41134   0.10555
H          H       0.22666   0.00507   0.91166   0.10527
H          H       0.88003   0.50486   0.65501   0.10382
H          H       0.87371   0.49503   0.15863   0.10383
H          H       0.37246   0.00744   0.65763   0.10400
H          H       0.37729   0.99427   0.15252   0.10426
H          H       0.86456   0.45282   0.68423   0.12305
H          H       0.85652   0.54673   0.18895   0.12278
H          H       0.35737   0.95576   0.69048   0.12309
H          H       0.36392   0.04627   0.18443   0.12350
H          H       0.91978   0.58580   0.90886   0.11414
H          H       0.91479   0.41019   0.39183   0.11283
H          H       0.41062   0.09087   0.87971   0.11195
H          H       0.41158   0.91156   0.39761   0.11237
H          H       0.27807   0.50789   0.39700   0.10779
H          H       0.27870   0.49316   0.90111   0.10812
H          H       0.77147   0.00849   0.40005   0.10836
H          H       0.77452   0.99179   0.89291   0.10866
H          H       0.33172   0.59126   0.33391   0.11314
H          H       0.32960   0.40966   0.83577   0.11371
H          H       0.82663   0.09097   0.33413   0.11366
H          H       0.82787   0.90822   0.83128   0.11338
H          H       0.39982   0.60215   0.48069   0.11134
H          H       0.39779   0.39883   0.98208   0.11281
H          H       0.89573   0.10220   0.48018   0.11304
H          H       0.89435   0.89772   0.97833   0.11150
H          H       0.34272   0.51935   0.54302   0.11467
H          H       0.34381   0.48181   0.04662   0.11425
H          H       0.83775   0.02013   0.54526   0.11435
H          H       0.83739   0.98066   0.03929   0.11517
H          H       0.80807   0.69628   0.92061   0.10645
H          H       0.81812   0.29734   0.40549   0.10595
H          H       0.31694   0.20041   0.91188   0.10511
H          H       0.31402   0.80186   0.41557   0.10635
H          H       0.05248   0.46060   0.69062   0.12060
H          H       0.04143   0.54033   0.19478   0.12145
H          H       0.53613   0.95982   0.69218   0.12130
H          H       0.54798   0.03807   0.18955   0.12089
H          H       0.04003   0.51205   0.72826   0.10190
H          H       0.02963   0.48887   0.23257   0.10374
H          H       0.52638   0.01145   0.73013   0.10377
H          H       0.53497   0.98663   0.22631   0.10279
H          H       0.16829   0.49376   0.97683   0.10501
H          H       0.17464   0.50529   0.47480   0.10616
H          H       0.67238   0.99555   0.97175   0.10572
H          H       0.66298   0.00536   0.47549   0.10529
H          H       0.18434   0.44398   0.93861   0.09744
H          H       0.18987   0.55504   0.43550   0.09891
H          H       0.68516   0.94542   0.93216   0.09906
H          H       0.67909   0.05532   0.43787   0.09770
H          H       0.00802   0.58338   0.78109   0.10285
H          H       0.00117   0.42052   0.27130   0.10241
H          H       0.50059   0.07854   0.76408   0.10257
H          H       0.49981   0.91633   0.27456   0.10261
H          H       0.18684   0.53983   0.84704   0.10131
H          H       0.18902   0.45775   0.35748   0.10194
H          H       0.69048   0.04392   0.86073   0.10184
H          H       0.68105   0.95886   0.34475   0.10146
H          H       0.21424   0.57651   0.76721   0.11127
H          H       0.21325   0.42206   0.27254   0.11102
H          H       0.71687   0.07976   0.77816   0.10939
H          H       0.70607   0.92315   0.26054   0.11057
H          H       0.03474   0.61938   0.70041   0.10873
H          H       0.02456   0.38555   0.18572   0.10786
H          H       0.52672   0.11427   0.68282   0.11030
H          H       0.52419   0.88116   0.18998   0.11017
H          H       0.82264   0.50861   0.37687   0.10482
H          H       0.82766   0.48949   0.87699   0.10633
H          H       0.32385   0.00918   0.37789   0.10616
H          H       0.31933   0.99098   0.87450   0.10481
H          H       0.82612   0.65515   0.84285   0.11149
H          H       0.83257   0.33948   0.32737   0.11180
H          H       0.32880   0.15857   0.83091   0.11205
H          H       0.32819   0.84372   0.33653   0.11112
H          H       0.74258   0.80541   0.08605   0.11159
H          H       0.74349   0.20100   0.60129   0.11054
H          H       0.24546   0.30377   0.09883   0.11094
H          H       0.24934   0.69509   0.59090   0.11164
H          H       0.56906   0.74518   0.01058   0.10601
H          H       0.57133   0.24902   0.51003   0.10612
H          H       0.07438   0.25080   0.02173   0.10645
H          H       0.07651   0.75350   0.52044   0.10497
H          H       0.91643   0.57242   0.62626   0.10375
H          H       0.91606   0.42730   0.12225   0.10293
H          H       0.41255   0.07420   0.62289   0.10329
H          H       0.41167   0.92784   0.12271   0.10311
H          H       0.89907   0.60750   0.71766   0.11317
H          H       0.89859   0.39108   0.21126   0.11258
H          H       0.39417   0.10925   0.71417   0.11475
H          H       0.39456   0.89297   0.21472   0.11257
H          H       0.70535   0.57768   0.62753   0.10492
H          H       0.70792   0.42293   0.13204   0.10559
H          H       0.20233   0.07714   0.62743   0.10604
H          H       0.20080   0.92185   0.12462   0.10491
H          H       0.72309   0.54194   0.53836   0.10133
H          H       0.72576   0.45935   0.04496   0.10082
H          H       0.22113   0.04176   0.53877   0.10143
H          H       0.21790   0.95681   0.03364   0.10080
H          H       0.54430   0.87330   0.08434   0.06095
H          H       0.55364   0.12334   0.58602   0.05909
H          H       0.04898   0.37621   0.08417   0.06169
H          H       0.05342   0.62537   0.59233   0.06136
H          H       0.18224   0.57994   0.94806   0.10862
H          H       0.17273   0.41708   0.45086   0.10704
H          H       0.67029   0.08455   0.95097   0.10969
H          H       0.67776   0.91952   0.44448   0.10801
H          H       0.08074   0.51283   0.00914   0.10539
H          H       0.08764   0.49108   0.51156   0.10509
H          H       0.58401   0.00953   0.00682   0.10524
H          H       0.57600   0.98531   0.50851   0.10473
H          H       0.14752   0.52193   0.15388   0.10761
H          H       0.15206   0.48171   0.65617   0.10733
H          H       0.64757   0.01853   0.15180   0.10749
H          H       0.64244   0.97548   0.65299   0.10750
H          H       0.24908   0.58964   0.09473   0.11574
H          H       0.23917   0.40777   0.59769   0.11675
H          H       0.73602   0.09337   0.09828   0.11664
H          H       0.74560   0.91001   0.59069   0.11585
H          H       0.63349   0.50806   0.99111   0.10618
H          H       0.63326   0.49061   0.49270   0.10621
H          H       0.12998   0.00636   0.99016   0.10556
H          H       0.12950   0.99195   0.48699   0.10707
H          H       0.57069   0.51967   0.84552   0.11485
H          H       0.57079   0.47827   0.34684   0.11467
H          H       0.06599   0.01808   0.84429   0.11502
H          H       0.06485   0.98031   0.34107   0.11500
H          H       0.50853   0.60076   0.90900   0.11210
H          H       0.50625   0.39783   0.41118   0.11180
H          H       0.00959   0.10035   0.90942   0.11406
H          H       0.00358   0.89882   0.40425   0.11185
H          H       0.57404   0.58956   0.05551   0.11564
H          H       0.57318   0.40932   0.55782   0.11430
H          H       0.07670   0.08910   0.05606   0.11308
H          H       0.07035   0.91013   0.55117   0.11422
H          H       0.51671   0.83627   0.98065   0.10674
H          H       0.52709   0.15623   0.47467   0.10656
H          H       0.02297   0.34032   0.97681   0.10659
H          H       0.02438   0.66212   0.48836   0.10654
H          H       0.54628   0.79546   0.91356   0.10576
H          H       0.55505   0.19646   0.40445   0.10678
H          H       0.05339   0.29965   0.91044   0.10612
H          H       0.05235   0.70323   0.42032   0.10587
H          H       0.82052   0.64179   0.09524   0.11544
H          H       0.82561   0.36024   0.57759   0.11478
H          H       0.32571   0.13976   0.08237   0.11514
H          H       0.32437   0.86117   0.58855   0.11467
H          H       0.80569   0.69507   0.05568   0.10446
H          H       0.81061   0.30689   0.53762   0.10444
H          H       0.31060   0.19319   0.04436   0.10419
H          H       0.31094   0.80767   0.55032   0.10370
H          H       0.60424   0.68058   0.92095   0.11114
H          H       0.60808   0.31636   0.44519   0.11111
H          H       0.10853   0.18309   0.95820   0.11199
H          H       0.10764   0.81756   0.44053   0.11055
H          H       0.61922   0.62747   0.96004   0.09922
H          H       0.62308   0.36971   0.48328   0.10164
H          H       0.12354   0.12969   0.99311   0.10259
H          H       0.12114   0.87090   0.47780   0.10196
H          H       0.66740   0.51890   0.13092   0.07077
H          H       0.66920   0.48000   0.63142   0.07263
H          H       0.16945   0.01825   0.12964   0.07290
H          H       0.16343   0.98122   0.62690   0.07200
H          H       0.66618   0.58985   0.29854   0.11552
H          H       0.66111   0.41205   0.80003   0.11495
H          H       0.16285   0.08850   0.29523   0.11442
H          H       0.15988   0.91018   0.79142   0.11486
H          H       0.70910   0.91470   0.85777   0.06509
H          H       0.71272   0.08439   0.36831   0.06335
H          H       0.21661   0.41463   0.86871   0.06358
H          H       0.21432   0.58615   0.36154   0.06517
H          H       0.59689   0.77778   0.70015   0.10517
H          H       0.60091   0.22803   0.20283   0.10270
H          H       0.10468   0.27017   0.70948   0.10346
H          H       0.09654   0.72633   0.20825   0.10409
H          H       0.75603   0.51876   0.23344   0.10864
H          H       0.76091   0.47841   0.73366   0.10852
H          H       0.25780   0.01866   0.23396   0.10928
H          H       0.25426   0.98064   0.73038   0.10958
H          H       0.76194   0.72410   0.26592   0.10227
H          H       0.75429   0.28330   0.76258   0.10329
H          H       0.26618   0.22541   0.27443   0.10215
H          H       0.27059   0.77655   0.77390   0.10232
H          H       0.77129   0.73257   0.13860   0.10425
H          H       0.76875   0.27362   0.63927   0.10616
H          H       0.27386   0.23063   0.14480   0.10633
H          H       0.27833   0.76899   0.64503   0.10546
H          H       0.71337   0.77710   0.57353   0.10301
H          H       0.71618   0.22103   0.07544   0.10210
H          H       0.22141   0.27612   0.58388   0.10326
H          H       0.20349   0.72562   0.06927   0.10304
H          H       0.60973   0.78711   0.57551   0.10390
H          H       0.61035   0.21789   0.07624   0.10267
H          H       0.11532   0.27983   0.58358   0.10275
H          H       0.10160   0.71779   0.07813   0.10287
H          H       0.80379   0.75720   0.69686   0.10544
H          H       0.81221   0.23417   0.20236   0.10439
H          H       0.31622   0.26240   0.71081   0.10311
H          H       0.30020   0.74174   0.19170   0.10490
H          H       0.03009   0.58046   0.92915   0.10912
H          H       0.02647   0.41681   0.41802   0.10955
H          H       0.52251   0.08502   0.90616   0.10922
H          H       0.52273   0.91742   0.42153   0.10964
H          H       0.70015   0.62778   0.64048   0.06531
H          H       0.69621   0.37678   0.15403   0.06255
H          H       0.19198   0.12361   0.65263   0.06359
H          H       0.19304   0.87542   0.14987   0.06207
H          H       0.55925   0.73675   0.13753   0.10438
H          H       0.55616   0.25956   0.63246   0.10370
H          H       0.06609   0.24533   0.15077   0.10282
H          H       0.06815   0.76141   0.64870   0.10368
H          H       0.65582   0.72614   0.26593   0.10275
H          H       0.64790   0.27642   0.75972   0.10314
H          H       0.16236   0.23319   0.27794   0.10313
H          H       0.16562   0.77229   0.77648   0.10266
H          H       0.03701   0.49923   0.59129   0.11235
H          H       0.03854   0.50202   0.09957   0.11161
H          H       0.53199   0.99642   0.59137   0.11256
H          H       0.53149   0.00085   0.08351   0.11310
H          H       0.99253   0.58683   0.49277   0.10409
H          H       0.99174   0.41635   0.98707   0.10483
H          H       0.49308   0.08392   0.49149   0.10351
H          H       0.48733   0.91207   0.99136   0.10320
C          C       0.88718   0.54428   0.84347   0.20011
C          C       0.88617   0.45443   0.34438   0.19729
C          C       0.38403   0.04550   0.84019   0.19868
C          C       0.38142   0.95434   0.33981   0.19834
C          C       0.79492   0.56769   0.83639   0.08226
C          C       0.79415   0.43112   0.33974   0.08027
C          C       0.29261   0.06775   0.83913   0.08267
C          C       0.28912   0.93166   0.33617   0.08035
C          C       0.42786   0.56777   0.74886  -0.01696
C          C       0.42706   0.43137   0.25093  -0.01671
C          C       0.92605   0.06617   0.75059  -0.01843
C          C       0.92173   0.93228   0.24542  -0.01684
C          C       0.49476   0.56616   0.77874  -0.02556
C          C       0.49402   0.43198   0.28096  -0.02555
C          C       0.99281   0.06537   0.77950  -0.02411
C          C       0.98864   0.93350   0.27515  -0.02360
C          C       0.52230   0.56722   0.72429  -0.02039
C          C       0.52154   0.43068   0.22659  -0.02466
C          C       0.01985   0.06755   0.72474  -0.02499
C          C       0.01627   0.93199   0.22091  -0.02457
C          C       0.48307   0.56757   0.63977  -0.02183
C          C       0.48222   0.43123   0.14212  -0.01872
C          C       0.98011   0.06849   0.64041  -0.01801
C          C       0.97720   0.93179   0.13643  -0.01916
C          C       0.41616   0.56662   0.60995  -0.02376
C          C       0.41553   0.43368   0.11221  -0.02438
C          C       0.91331   0.06666   0.61106  -0.02484
C          C       0.91039   0.93336   0.10662  -0.02377
C          C       0.38855   0.56789   0.66428  -0.02505
C          C       0.38789   0.43237   0.16649  -0.02366
C          C       0.88642   0.06662   0.66628  -0.02362
C          C       0.88269   0.93238   0.16085  -0.02470
C          C       0.97026   0.51624   0.82876  -0.13526
C          C       0.97173   0.48469   0.34211  -0.13591
C          C       0.47039   0.01556   0.84031  -0.13701
C          C       0.46601   0.98294   0.32932  -0.13515
C          C       0.21422   0.59050   0.55494  -0.11790
C          C       0.21288   0.41046   0.05915  -0.11759
C          C       0.71219   0.08859   0.56254  -0.11677
C          C       0.70856   0.90936   0.05220  -0.11814
C          C       0.18428   0.56742   0.57629   0.06006
C          C       0.18410   0.43415   0.07968   0.06007
C          C       0.68324   0.06471   0.58243   0.05990
C          C       0.67885   0.93252   0.07322   0.05929
C          C       0.22230   0.54483   0.62689  -0.09997
C          C       0.22293   0.45712   0.12850  -0.09746
C          C       0.72174   0.04172   0.63050  -0.09705
C          C       0.71687   0.95544   0.12339  -0.09898
C          C       0.28774   0.54506   0.65428  -0.13553
C          C       0.28835   0.45651   0.15557  -0.13761
C          C       0.78710   0.04253   0.65724  -0.13774
C          C       0.78234   0.95533   0.15098  -0.13653
C          C       0.31798   0.56800   0.63282   0.07755
C          C       0.31742   0.43287   0.13523   0.07804
C          C       0.81618   0.06613   0.63632   0.07839
C          C       0.81225   0.93235   0.12945   0.07740
C          C       0.28021   0.59068   0.58268  -0.14297
C          C       0.27876   0.40992   0.08640  -0.14283
C          C       0.77788   0.08912   0.58862  -0.14302
C          C       0.77446   0.90940   0.07969  -0.14434
C          C       0.01511   0.53865   0.86644   0.06585
C          C       0.01460   0.46121   0.37080   0.06615
C          C       0.51247   0.03964   0.86597   0.06410
C          C       0.50985   0.96019   0.36467   0.06622
C          C       0.11509   0.56617   0.54563   0.07828
C          C       0.11509   0.43539   0.04979   0.07963
C          C       0.61431   0.06356   0.55234   0.07912
C          C       0.60978   0.93326   0.04302   0.07957
C          C       0.82664   0.53438   0.51061   0.00983
C          C       0.82687   0.46639   0.01169   0.01023
C          C       0.32418   0.03467   0.51049   0.00891
C          C       0.32174   0.96510   0.00668   0.01124
C          C       0.73918   0.56613   0.39840  -0.14815
C          C       0.73592   0.43555   0.89957  -0.14647
C          C       0.23593   0.06540   0.39662  -0.14856
C          C       0.23264   0.93385   0.89291  -0.14601
C          C       0.78270   0.54282   0.42189   0.06103
C          C       0.78280   0.45764   0.92277   0.05845
C          C       0.28097   0.04271   0.42122   0.06082
C          C       0.27735   0.95693   0.91761   0.05926
C          C       0.72785   0.59920   0.04005   0.07668
C          C       0.73133   0.40040   0.54404   0.07723
C          C       0.23125   0.09905   0.04768   0.07571
C          C       0.22916   0.90147   0.54688   0.07682
C          C       0.08454   0.53733   0.87766   0.01055
C          C       0.08351   0.46282   0.38044   0.00942
C          C       0.58188   0.03801   0.87745   0.01064
C          C       0.57920   0.96146   0.37560   0.00819
C          C       0.90767   0.51908   0.81745  -0.14472
C          C       0.90866   0.48125   0.32850  -0.14547
C          C       0.40740   0.01852   0.82715  -0.14677
C          C       0.40315   0.98001   0.31715  -0.14480
C          C       0.93944   0.51278   0.55053  -0.13269
C          C       0.94044   0.48830   0.05648  -0.13222
C          C       0.43542   0.01150   0.55082  -0.13183
C          C       0.43406   0.98687   0.04403  -0.13288
C          C       0.54657   0.59333   0.57860  -0.14755
C          C       0.54235   0.40287   0.08228  -0.14563
C          C       0.04085   0.09766   0.58215  -0.14982
C          C       0.03935   0.90450   0.07668  -0.14573
C          C       0.51280   0.56820   0.58279   0.07694
C          C       0.51209   0.42917   0.08572   0.07503
C          C       0.00934   0.07134   0.58332   0.07665
C          C       0.00700   0.93017   0.07971   0.07553
C          C       0.50821   0.54390   0.53299  -0.13513
C          C       0.51162   0.45286   0.03650  -0.13378
C          C       0.00673   0.04832   0.53078  -0.13409
C          C       0.00388   0.95384   0.02902  -0.13454
C          C       0.53687   0.54461   0.48073  -0.08775
C          C       0.54162   0.45048   0.98602  -0.08797
C          C       0.03530   0.05146   0.47883  -0.08821
C          C       0.03262   0.95195   0.97703  -0.08650
C          C       0.57037   0.56972   0.47694  -0.09402
C          C       0.57184   0.42424   0.98322  -0.09282
C          C       0.06630   0.07780   0.47785  -0.09355
C          C       0.06468   0.92629   0.97444  -0.09331
C          C       0.57484   0.59412   0.52594  -0.09242
C          C       0.57169   0.40036   0.03116  -0.09472
C          C       0.06868   0.10095   0.52950  -0.09425
C          C       0.06771   0.90250   0.02431  -0.09561
C          C       0.91575   0.56187   0.49615  -0.12146
C          C       0.91559   0.44024   0.99420  -0.12259
C          C       0.41501   0.06067   0.49636  -0.12291
C          C       0.41045   0.93714   0.99301  -0.12268
C          C       0.75091   0.75638   0.76701  -0.13859
C          C       0.76019   0.23892   0.27315  -0.13867
C          C       0.26346   0.25836   0.78085  -0.13954
C          C       0.25233   0.74357   0.26791  -0.13803
C          C       0.63006   0.59132   0.79977  -0.14565
C          C       0.62952   0.40716   0.30472  -0.14525
C          C       0.12818   0.09050   0.80618  -0.14498
C          C       0.12368   0.90835   0.30006  -0.14581
C          C       0.59279   0.56732   0.75508   0.07710
C          C       0.59198   0.43035   0.25715   0.07649
C          C       0.09025   0.06784   0.75523   0.07646
C          C       0.08672   0.93164   0.25217   0.07656
C          C       0.62318   0.54352   0.73757  -0.14079
C          C       0.62218   0.45367   0.23687  -0.14008
C          C       0.12012   0.04518   0.73247  -0.13957
C          C       0.11747   0.95479   0.23233  -0.13874
C          C       0.68854   0.54369   0.76381  -0.09749
C          C       0.68751   0.45386   0.26326  -0.10076
C          C       0.18556   0.04524   0.75950  -0.10090
C          C       0.18289   0.95472   0.25940  -0.10032
C          C       0.72602   0.56778   0.80835   0.05824
C          C       0.72520   0.43055   0.31065   0.05676
C          C       0.22363   0.06805   0.81013   0.05620
C          C       0.22013   0.93141   0.30743   0.05722
C          C       0.69578   0.59170   0.82554  -0.12242
C          C       0.69525   0.40709   0.33049  -0.12257
C          C       0.19398   0.09076   0.83283  -0.12110
C          C       0.18954   0.90812   0.32703  -0.12244
C          C       0.72125   0.85669   0.86584  -0.11893
C          C       0.72745   0.14160   0.38123  -0.11780
C          C       0.23084   0.35714   0.88126  -0.11847
C          C       0.22662   0.64398   0.37025  -0.11822
C          C       0.66291   0.87162   0.82756   0.05740
C          C       0.66950   0.12750   0.33159   0.05651
C          C       0.17278   0.37126   0.83367   0.05611
C          C       0.16818   0.62894   0.33063   0.05530
C          C       0.60589   0.85527   0.80015  -0.10437
C          C       0.61443   0.14477   0.29248  -0.10162
C          C       0.11699   0.35397   0.79782  -0.10221
C          C       0.11131   0.64517   0.30219  -0.10323
C          C       0.60738   0.82510   0.81461  -0.14105
C          C       0.61687   0.17502   0.30699  -0.14258
C          C       0.11897   0.32384   0.81315  -0.14037
C          C       0.11309   0.67534   0.31720  -0.14110
C          C       0.66562   0.81034   0.85613   0.08167
C          C       0.67399   0.18883   0.36065   0.08480
C          C       0.17642   0.31000   0.86435   0.08307
C          C       0.17137   0.69017   0.36061   0.08309
C          C       0.72248   0.82638   0.87942  -0.13765
C          C       0.72966   0.17191   0.39546  -0.13783
C          C       0.23261   0.32689   0.89613  -0.13738
C          C       0.22813   0.67428   0.38452  -0.13750
C          C       0.02391   0.54352   0.54632   0.19737
C          C       0.02420   0.45869   0.04771   0.19978
C          C       0.52173   0.04062   0.54636   0.19857
C          C       0.51839   0.95610   0.04118   0.19892
C          C       0.25978   0.54243   0.27074   0.06775
C          C       0.25884   0.45843   0.77367   0.06956
C          C       0.75342   0.04243   0.27235   0.06923
C          C       0.75667   0.95672   0.76743   0.06968
C          C       0.67066   0.66945   0.71855  -0.12699
C          C       0.67117   0.33397   0.23345  -0.12529
C          C       0.16761   0.16458   0.73944  -0.12167
C          C       0.16814   0.83340   0.23092  -0.12281
C          C       0.66053   0.69252   0.76148  -0.13419
C          C       0.66299   0.31044   0.27661  -0.13613
C          C       0.16087   0.18796   0.78432  -0.13636
C          C       0.16025   0.81002   0.27463  -0.13429
C          C       0.67699   0.83506   0.10091  -0.09903
C          C       0.68138   0.16807   0.61234  -0.10108
C          C       0.18025   0.33484   0.10919  -0.09921
C          C       0.18483   0.66483   0.60694  -0.09986
C          C       0.33624   0.59647   0.85970  -0.08349
C          C       0.33629   0.40460   0.36574  -0.08484
C          C       0.83858   0.09290   0.86897  -0.08413
C          C       0.82725   0.90657   0.35669  -0.08442
C          C       0.34171   0.57311   0.91192  -0.09529
C          C       0.34188   0.42888   0.41559  -0.09574
C          C       0.84547   0.06900   0.92017  -0.09626
C          C       0.83432   0.93060   0.40788  -0.09686
C          C       0.37526   0.54777   0.91091  -0.09198
C          C       0.37547   0.45398   0.41187  -0.09082
C          C       0.87777   0.04377   0.91506  -0.08961
C          C       0.87000   0.95519   0.40607  -0.09015
C          C       0.40348   0.54580   0.85835  -0.13763
C          C       0.40322   0.45481   0.35866  -0.13645
C          C       0.90361   0.04256   0.85985  -0.13698
C          C       0.89868   0.95566   0.35387  -0.13720
C          C       0.39832   0.56915   0.80578   0.07152
C          C       0.39761   0.43061   0.30809   0.07323
C          C       0.89744   0.06654   0.80869   0.07231
C          C       0.89186   0.93168   0.30217   0.07098
C          C       0.36420   0.59441   0.80696  -0.14278
C          C       0.36380   0.40550   0.31223  -0.14411
C          C       0.86409   0.09159   0.81346  -0.14394
C          C       0.85550   0.90718   0.30399  -0.14377
C          C       0.78772   0.44447   0.56550   0.20098
C          C       0.78551   0.55581   0.06704   0.19998
C          C       0.28527   0.94552   0.56960   0.20166
C          C       0.28687   0.05508   0.06638   0.20129
C          C       0.74841   0.45757   0.49085  -0.17863
C          C       0.75046   0.54329   0.98987  -0.17611
C          C       0.24882   0.95739   0.49228  -0.17846
C          C       0.24693   0.04220   0.99126  -0.17749
C          C       0.75943   0.48633   0.47320  -0.13530
C          C       0.76249   0.51479   0.97197  -0.13397
C          C       0.25967   0.98593   0.47307  -0.13580
C          C       0.25680   0.01348   0.97203  -0.13605
C          C       0.80909   0.50342   0.52998   0.05330
C          C       0.80887   0.49724   0.03095   0.05295
C          C       0.30622   0.00400   0.53083   0.05237
C          C       0.30580   0.99612   0.02783   0.05301
C          C       0.84385   0.49139   0.60795  -0.13118
C          C       0.83997   0.50880   0.11040  -0.13271
C          C       0.33851   0.99314   0.61055  -0.12937
C          C       0.34141   0.00793   0.10627  -0.13063
C          C       0.83475   0.46230   0.62521  -0.17043
C          C       0.82989   0.53772   0.12816  -0.16973
C          C       0.32963   0.96426   0.62962  -0.17152
C          C       0.33357   0.03703   0.12496  -0.17030
C          C       0.93298   0.56630   0.88529  -0.16632
C          C       0.93022   0.43126   0.37814  -0.16514
C          C       0.42706   0.06949   0.86982  -0.16667
C          C       0.42609   0.93180   0.37855  -0.16519
C          C       0.30446   0.52862   0.41541  -0.12339
C          C       0.30483   0.47247   0.91889  -0.12327
C          C       0.79911   0.02891   0.41751  -0.12355
C          C       0.80071   0.97116   0.91185  -0.12319
C          C       0.30059   0.54899   0.35594   0.05096
C          C       0.29995   0.45206   0.85876   0.05092
C          C       0.79534   0.04894   0.35732   0.04971
C          C       0.79715   0.95059   0.85275   0.05004
C          C       0.33499   0.57572   0.38059  -0.11242
C          C       0.33377   0.42535   0.88268  -0.11129
C          C       0.83053   0.07549   0.38121  -0.11127
C          C       0.83102   0.92394   0.87766  -0.11220
C          C       0.37211   0.58180   0.46231  -0.14151
C          C       0.37090   0.41925   0.96416  -0.14404
C          C       0.86832   0.08175   0.46269  -0.14254
C          C       0.86719   0.91805   0.95943  -0.14118
C          C       0.37506   0.56166   0.52195   0.08242
C          C       0.37481   0.43934   0.02456   0.08083
C          C       0.87166   0.06186   0.52309   0.07943
C          C       0.86980   0.93833   0.01877   0.08095
C          C       0.34053   0.53507   0.49726  -0.13756
C          C       0.34112   0.46601   0.00062  -0.13676
C          C       0.83618   0.03547   0.49907  -0.13760
C          C       0.83584   0.96489   0.99384  -0.13745
C          C       0.67081   0.73932   0.06590   0.07170
C          C       0.67103   0.26065   0.56603   0.06959
C          C       0.17463   0.24106   0.07458   0.07043
C          C       0.17802   0.76034   0.57429   0.07086
C          C       0.73045   0.65579   0.74757   0.05208
C          C       0.73246   0.34471   0.25185   0.05422
C          C       0.22835   0.15393   0.75585   0.05194
C          C       0.22881   0.84565   0.25293   0.05307
C          C       0.76948   0.68859   0.86414  -0.13521
C          C       0.77698   0.30772   0.35735  -0.13942
C          C       0.27513   0.19027   0.86364  -0.13656
C          C       0.27325   0.81089   0.36393  -0.13745
C          C       0.70984   0.70250   0.83470   0.08457
C          C       0.71572   0.29698   0.33903   0.08767
C          C       0.21453   0.20128   0.84645   0.08621
C          C       0.21271   0.79841   0.34141   0.08585
C          C       0.61308   0.84389   0.07171   0.04931
C          C       0.62015   0.15522   0.57700   0.04873
C          C       0.11721   0.34528   0.07551   0.04969
C          C       0.12113   0.65549   0.57869   0.04938
C          C       0.07798   0.46810   0.75313  -0.17094
C          C       0.07103   0.53227   0.25563  -0.17137
C          C       0.56671   0.96805   0.75276  -0.17121
C          C       0.57365   0.03054   0.25182  -0.17127
C          C       0.07057   0.49680   0.77481  -0.13164
C          C       0.06403   0.50362   0.27761  -0.12873
C          C       0.56086   0.99684   0.77488  -0.12699
C          C       0.56587   0.00187   0.27318  -0.13081
C          C       0.10030   0.50640   0.85618   0.05180
C          C       0.09876   0.49362   0.35780   0.05384
C          C       0.59651   0.00708   0.85495   0.05423
C          C       0.59555   0.99239   0.35449   0.05337
C          C       0.14282   0.48710   0.91373  -0.13359
C          C       0.14572   0.51229   0.41282  -0.13784
C          C       0.64297   0.98844   0.90977  -0.13504
C          C       0.63805   0.01187   0.41236  -0.13419
C          C       0.15233   0.45871   0.89204  -0.17859
C          C       0.15468   0.54067   0.39050  -0.17853
C          C       0.65071   0.95989   0.88727  -0.17851
C          C       0.64772   0.04031   0.39100  -0.17902
C          C       0.11840   0.44821   0.81228   0.19972
C          C       0.11582   0.55163   0.31281   0.19951
C          C       0.61132   0.94879   0.80957   0.19904
C          C       0.61427   0.05054   0.31115   0.19994
C          C       0.05316   0.58153   0.77819  -0.13422
C          C       0.04770   0.42114   0.27189  -0.13589
C          C       0.54819   0.07873   0.76798  -0.13671
C          C       0.54519   0.91803   0.27215  -0.13565
C          C       0.09589   0.55924   0.82140   0.06080
C          C       0.09387   0.44117   0.32270   0.06220
C          C       0.59419   0.05943   0.82107   0.06259
C          C       0.58938   0.93969   0.31800   0.06238
C          C       0.15341   0.55730   0.81491  -0.12571
C          C       0.15310   0.44173   0.32030  -0.12763
C          C       0.65463   0.05948   0.82204  -0.12731
C          C       0.64687   0.94162   0.31138  -0.12869
C          C       0.16903   0.57759   0.77021  -0.15714
C          C       0.16692   0.42197   0.27272  -0.15693
C          C       0.66975   0.07943   0.77601  -0.15679
C          C       0.66119   0.92181   0.26441  -0.15455
C          C       0.12613   0.60011   0.72746   0.19928
C          C       0.12086   0.40133   0.22328   0.19904
C          C       0.62406   0.09969   0.72533   0.19781
C          C       0.61721   0.89965   0.21993   0.19716
C          C       0.06780   0.60169   0.73165  -0.17561
C          C       0.06069   0.40151   0.22270  -0.17256
C          C       0.56268   0.09867   0.72093  -0.17447
C          C       0.55858   0.89830   0.22348  -0.17497
C          C       0.78793   0.52631   0.36031  -0.12261
C          C       0.79083   0.47262   0.86094  -0.12061
C          C       0.28803   0.02640   0.36053  -0.12028
C          C       0.28400   0.97335   0.85692  -0.12197
C          C       0.89533   0.53566   0.51910   0.06615
C          C       0.89569   0.46571   0.02078   0.06593
C          C       0.39306   0.03506   0.51988   0.06518
C          C       0.39013   0.96366   0.01441   0.06618
C          C       0.77982   0.66565   0.82130  -0.10744
C          C       0.78538   0.33120   0.31448  -0.10622
C          C       0.28208   0.16698   0.81910  -0.10802
C          C       0.28141   0.83415   0.32036  -0.10719
C          C       0.69320   0.81225   0.06322  -0.13372
C          C       0.69642   0.19087   0.57348  -0.13304
C          C       0.19682   0.31189   0.07234  -0.13417
C          C       0.20019   0.68773   0.56868  -0.13303
C          C       0.61122   0.74049   0.06654  -0.14113
C          C       0.61129   0.25668   0.56526  -0.14048
C          C       0.11616   0.24504   0.07705  -0.14040
C          C       0.11891   0.75847   0.57613  -0.13914
C          C       0.81970   0.55591   0.57112   0.05974
C          C       0.82046   0.44458   0.07197   0.06319
C          C       0.31677   0.05667   0.56974   0.06399
C          C       0.31471   0.94358   0.06701   0.06144
C          C       0.86959   0.57386   0.62446  -0.13872
C          C       0.86975   0.42596   0.12209  -0.14026
C          C       0.36589   0.07523   0.62176  -0.14250
C          C       0.36488   0.92621   0.12099  -0.13899
C          C       0.86026   0.59364   0.67617  -0.15600
C          C       0.86046   0.40566   0.17265  -0.15232
C          C       0.35601   0.09495   0.67323  -0.15306
C          C       0.35582   0.90665   0.17326  -0.15259
C          C       0.80021   0.59674   0.67452   0.19995
C          C       0.80119   0.40285   0.17362   0.19993
C          C       0.29631   0.09728   0.67306   0.19805
C          C       0.29600   0.90344   0.17231   0.20028
C          C       0.75089   0.57736   0.62512  -0.17640
C          C       0.75289   0.42306   0.12814  -0.17227
C          C       0.24773   0.07740   0.62460  -0.17147
C          C       0.24643   0.92234   0.12243  -0.17424
C          C       0.76114   0.55716   0.57518  -0.12513
C          C       0.76302   0.44361   0.07901  -0.12453
C          C       0.25845   0.05743   0.57462  -0.12559
C          C       0.25623   0.94210   0.07132  -0.12526
C          C       0.59493   0.86705   0.11232   0.05783
C          C       0.60302   0.13155   0.61725   0.05686
C          C       0.09885   0.36885   0.11495   0.05601
C          C       0.10381   0.63227   0.62006   0.05758
C          C       0.17508   0.56684   0.99271  -0.14576
C          C       0.16904   0.43167   0.49547  -0.14386
C          C       0.66608   0.06962   0.99448  -0.14565
C          C       0.67044   0.93230   0.48957  -0.14602
C          C       0.12774   0.54494   0.96739   0.05804
C          C       0.12683   0.45549   0.47000   0.06020
C          C       0.62403   0.04553   0.96747   0.06023
C          C       0.62271   0.95378   0.46509   0.05962
C          C       0.11841   0.52936   0.02737  -0.11953
C          C       0.12142   0.47297   0.52993  -0.12255
C          C       0.61783   0.02780   0.02631  -0.12236
C          C       0.61352   0.96893   0.52585  -0.12219
C          C       0.15657   0.53432   0.10941  -0.17613
C          C       0.15850   0.46789   0.61194  -0.17602
C          C       0.65448   0.03270   0.10864  -0.17503
C          C       0.65164   0.96373   0.60767  -0.17540
C          C       0.20564   0.55572   0.13459   0.19875
C          C       0.20329   0.44475   0.63741   0.19935
C          C       0.69964   0.05591   0.13565   0.19897
C          C       0.70117   0.94287   0.63187   0.19920
C          C       0.21288   0.57238   0.07496  -0.15884
C          C       0.20639   0.42629   0.57786  -0.15846
C          C       0.70306   0.07478   0.07720  -0.15618
C          C       0.70867   0.92674   0.57155  -0.16125
C          C       0.60579   0.52831   0.97316  -0.12287
C          C       0.60592   0.47014   0.47463  -0.12182
C          C       0.10355   0.02694   0.97230  -0.12147
C          C       0.10139   0.97168   0.46885  -0.12265
C          C       0.57087   0.53492   0.89131  -0.13905
C          C       0.57086   0.46325   0.39292  -0.13791
C          C       0.06792   0.03353   0.89065  -0.13860
C          C       0.06553   0.96507   0.38704  -0.13760
C          C       0.53545   0.56111   0.86678   0.08117
C          C       0.53483   0.43704   0.36890   0.08272
C          C       0.03389   0.06008   0.86706   0.08384
C          C       0.02984   0.93877   0.36286   0.08245
C          C       0.53656   0.58064   0.92700  -0.13897
C          C       0.53538   0.41777   0.42911  -0.13986
C          C       0.03674   0.07998   0.92733  -0.14231
C          C       0.03163   0.91907   0.42276  -0.13985
C          C       0.57223   0.57434   0.00875  -0.10957
C          C       0.57173   0.42424   0.51077  -0.11000
C          C       0.07324   0.07371   0.00882  -0.10995
C          C       0.06813   0.92538   0.50442  -0.11078
C          C       0.60759   0.54805   0.03319   0.04917
C          C       0.60765   0.45056   0.53468   0.04851
C          C       0.10741   0.04708   0.03248   0.04844
C          C       0.10358   0.95184   0.52869   0.04822
C          C       0.66370   0.77326   0.95479  -0.02654
C          C       0.66853   0.22593   0.45763  -0.02662
C          C       0.16962   0.27386   0.96223  -0.02459
C          C       0.16968   0.72668   0.46124  -0.02574
C          C       0.67665   0.74490   0.98988  -0.01936
C          C       0.67971   0.25456   0.49205  -0.01996
C          C       0.18065   0.24561  -0.00171  -0.02077
C          C       0.18272   0.75500   0.49739  -0.02010
C          C       0.69441   0.72204   0.95211  -0.02463
C          C       0.69861   0.27741   0.45525  -0.02616
C          C       0.19884   0.22214   0.96279  -0.02647
C          C       0.19944   0.77826   0.45967  -0.02535
C          C       0.69786   0.72747   0.87875  -0.02729
C          C       0.70461   0.27184   0.38355  -0.02652
C          C       0.20499   0.22690   0.89085  -0.02580
C          C       0.20264   0.77313   0.38605  -0.02696
C          C       0.68607   0.75605   0.84436  -0.02202
C          C       0.69421   0.24317   0.34976  -0.01990
C          C       0.19633   0.25536   0.85648  -0.02089
C          C       0.19131   0.74464   0.35101  -0.02112
C          C       0.66960   0.77902   0.88320  -0.02309
C          C       0.67696   0.22015   0.38767  -0.02583
C          C       0.17905   0.27892   0.89274  -0.02628
C          C       0.17535   0.72132   0.38926  -0.02529
C          C       0.56621   0.82952   0.00357  -0.13062
C          C       0.57485   0.16577   0.50181  -0.12994
C          C       0.07186   0.33244   0.00329  -0.13170
C          C       0.07371   0.66931   0.51053  -0.13085
C          C       0.58275   0.80667   0.96598  -0.13874
C          C       0.59045   0.18842   0.46254  -0.13623
C          C       0.08886   0.30954   0.96616  -0.13747
C          C       0.08937   0.69229   0.47232  -0.13803
C          C       0.77343   0.65065   0.05765  -0.10589
C          C       0.77835   0.35027   0.54936  -0.10533
C          C       0.27851   0.14958   0.05558  -0.10681
C          C       0.27723   0.85118   0.55775  -0.10414
C          C       0.76478   0.68025   0.03528  -0.14330
C          C       0.76966   0.32066   0.52667  -0.14214
C          C       0.26976   0.17926   0.03414  -0.14144
C          C       0.26941   0.82148   0.53577  -0.14242
C          C       0.70400   0.69127   0.98430   0.08386
C          C       0.70825   0.30821   0.48742   0.08392
C          C       0.20843   0.19162   0.99661   0.08306
C          C       0.20838   0.80906   0.49215   0.08308
C          C       0.65150   0.67211   0.95923  -0.13589
C          C       0.65566   0.32593   0.47438  -0.13592
C          C       0.15610   0.17370   0.98526  -0.13675
C          C       0.15506   0.82698   0.47377  -0.13548
C          C       0.65991   0.64246   0.98124  -0.11591
C          C       0.66409   0.35569   0.49617  -0.11720
C          C       0.16455   0.14383   0.00535  -0.11852
C          C       0.16263   0.85678   0.49518  -0.11745
C          C       0.72102   0.63114   0.02926   0.05799
C          C       0.72537   0.36840   0.53272   0.05521
C          C       0.22561   0.13116   0.03920   0.05740
C          C       0.22370   0.86942   0.53643   0.05635
C          C       0.70305   0.55421   0.25533   0.19949
C          C       0.70330   0.44536   0.75642   0.19958
C          C       0.20277   0.05354   0.25421   0.19894
C          C       0.19913   0.94555   0.75041   0.20049
C          C       0.64809   0.54145   0.11835   0.07086
C          C       0.64866   0.45756   0.61949   0.07123
C          C       0.14880   0.04055   0.11727   0.06968
C          C       0.14439   0.95853   0.61383   0.07147
C          C       0.70011   0.57179   0.31653  -0.15970
C          C       0.69717   0.42935   0.81785  -0.16124
C          C       0.19775   0.07083   0.31447  -0.15749
C          C       0.19442   0.92817   0.81066  -0.15940
C          C       0.66258   0.90382   0.82513   0.07758
C          C       0.66744   0.09528   0.33023   0.07937
C          C       0.17113   0.40351   0.83138   0.07966
C          C       0.16777   0.59673   0.32836   0.07770
C          C       0.64627   0.79769   0.99532   0.08821
C          C       0.65130   0.20135   0.49793   0.08609
C          C       0.15136   0.29880   0.00047   0.08741
C          C       0.15268   0.70189   0.50116   0.08691
C          C       0.64219   0.77330   0.69943  -0.14127
C          C       0.64709   0.22951   0.20244  -0.13963
C          C       0.15096   0.26850   0.70956  -0.13966
C          C       0.14102   0.72986   0.20438  -0.14130
C          C       0.74936   0.53174   0.27886  -0.17605
C          C       0.75227   0.46674   0.77950  -0.17462
C          C       0.25002   0.03151   0.27875  -0.17582
C          C       0.24624   0.96790   0.77511  -0.17553
C          C       0.71954   0.72863   0.21011  -0.08947
C          C       0.71404   0.27593   0.70726  -0.08930
C          C       0.22404   0.23086   0.21915  -0.08843
C          C       0.22799   0.77145   0.71856  -0.08873
C          C       0.72489   0.73332   0.13848  -0.14178
C          C       0.72226   0.27044   0.63787  -0.14115
C          C       0.22840   0.23372   0.14630  -0.14223
C          C       0.23243   0.76716   0.64613  -0.14198
C          C       0.70761   0.77288   0.62799  -0.09901
C          C       0.71190   0.22557   0.13082  -0.09722
C          C       0.21655   0.27178   0.63891  -0.09933
C          C       0.20112   0.72943   0.12618  -0.09889
C          C       0.69284   0.76205   0.76917   0.06862
C          C       0.70076   0.23720   0.27424   0.06983
C          C       0.20398   0.26068   0.78149   0.07114
C          C       0.19510   0.73928   0.27356   0.07008
C          C       0.64948   0.77858   0.62929  -0.09057
C          C       0.65249   0.22382   0.13123  -0.09024
C          C       0.15704   0.27391   0.63876  -0.08971
C          C       0.14389   0.72508   0.13118  -0.09023
C          C       0.75839   0.76177   0.69719  -0.09119
C          C       0.76574   0.23305   0.20208  -0.08999
C          C       0.26973   0.26400   0.71018  -0.08880
C          C       0.25535   0.73859   0.19488  -0.09075
C          C       0.99540   0.56333   0.89637  -0.12598
C          C       0.99313   0.43487   0.39170  -0.12476
C          C       0.48999   0.06631   0.88326  -0.12548
C          C       0.48889   0.93496   0.39113  -0.12613
C          C       0.74037   0.63243   0.69984   0.06801
C          C       0.74010   0.36904   0.20506   0.06857
C          C       0.23542   0.13039   0.70627   0.07151
C          C       0.23622   0.86932   0.20437   0.06986
C          C       0.60580   0.73576   0.13810  -0.08927
C          C       0.60289   0.26247   0.63437  -0.08989
C          C       0.11170   0.24209   0.14979  -0.08803
C          C       0.11436   0.76290   0.64838  -0.08926
C          C       0.65998   0.72982   0.21016  -0.09908
C          C       0.65431   0.27203   0.70574  -0.09961
C          C       0.16570   0.23516   0.22113  -0.10087
C          C       0.16898   0.76916   0.71997  -0.09972
C          C       0.00252   0.51680   0.56449  -0.14383
C          C       0.00346   0.48474   0.06983  -0.14411
C          C       0.49863   0.01439   0.56435  -0.14443
C          C       0.49704   0.98301   0.05790  -0.14449
C          C       0.97853   0.56597   0.50962  -0.17657
C          C       0.97826   0.43659   0.00729  -0.17593
C          C       0.47783   0.06359   0.50922  -0.17483
C          C       0.47317   0.93319   0.00638  -0.17626
N          N       0.11904   0.41820   0.79361  -0.28650
N          N       0.11544   0.58167   0.29478  -0.28747
N          N       0.61033   0.91868   0.79152  -0.28859
N          N       0.61526   0.08044   0.29214  -0.28762
N          N       0.24717   0.56228   0.21553  -0.28937
N          N       0.24443   0.43830   0.71843  -0.29079
N          N       0.74127   0.06215   0.21685  -0.29319
N          N       0.74280   0.93647   0.71267  -0.28864
N          N       0.08936   0.54546   0.56955  -0.28453
N          N       0.08964   0.45698   0.07086  -0.28719
N          N       0.58739   0.04170   0.57026  -0.28515
N          N       0.58374   0.95460   0.06397  -0.28619
N          N       0.82207   0.54491   0.82315  -0.28932
N          N       0.82088   0.45323   0.32247  -0.28675
N          N       0.31889   0.04623   0.81910  -0.28579
N          N       0.31621   0.95365   0.31893  -0.28792
N          N       0.66094   0.56101   0.17477  -0.29229
N          N       0.66096   0.43829   0.67608  -0.29341
N          N       0.16089   0.06008   0.17351  -0.29331
N          N       0.15744   0.93882   0.66953  -0.29372
N          N       0.78569   0.41391   0.57663  -0.28833
N          N       0.78200   0.58624   0.07960  -0.28749
N          N       0.28317   0.91512   0.58295  -0.28748
N          N       0.28538   0.08559   0.07953  -0.28831
N          N       0.14551   0.62055   0.68598  -0.27968
N          N       0.13964   0.38054   0.18201  -0.28063
N          N       0.64360   0.12077   0.68544  -0.28321
N          N       0.63629   0.87928   0.17803  -0.28057
N          N       0.79387   0.61871   0.72417  -0.29286
N          N       0.79545   0.38009   0.22154  -0.29920
N          N       0.29045   0.11911   0.72334  -0.29862
N          N       0.29081   0.88156   0.22279  -0.29760

