data_crystal

_audit_creation_method 'AiiDA-DDEC plugin'

_cell_length_a        10.34403
_cell_length_b        87.88345
_cell_length_c        27.18183

_cell_angle_alpha     90.58723
_cell_angle_beta     90.56968
_cell_angle_gamma     90.21358

_symmetry_space_group_name_Hall 'P 1'
_symmetry_space_group_name_H-M  'P 1'

loop_
_symmetry_equiv_pos_as_xyz
 'x,y,z'

loop_
_atom_site_label
_atom_site_type_symbol
_atom_site_fract_x
_atom_site_fract_y
_atom_site_fract_z
_atom_site_charge
H          H       0.58978   0.80609   0.46699   0.12033
H          H       0.45261   0.19246   0.45799   0.11037
H          H       0.38568   0.80382   0.53678   0.12196
H          H       0.64082   0.16219   0.58635   0.11906
H          H       0.02409   0.31789   0.44295   0.10725
H          H       0.89161   0.69645   0.46574   0.12211
H          H       0.89326   0.33496   0.59157   0.12587
H          H       0.10339   0.69674   0.52957   0.12087
H          H       0.47147   0.17953   0.56040   0.10754
H          H       0.57221   0.83079   0.58294   0.11719
H          H       0.64983   0.19875   0.47704   0.12090
H          H       0.39251   0.83495   0.42225   0.11915
H          H       0.93435   0.66832   0.57750   0.11462
H          H       0.05826   0.30836   0.54162   0.11414
H          H       0.06435   0.66740   0.41595   0.11479
H          H       0.86305   0.30146   0.49245   0.12134
H          H       0.63427   0.79149   0.38985   0.12182
H          H       0.42046   0.20830   0.38333   0.11154
H          H       0.34362   0.78997   0.61417   0.12024
H          H       0.65079   0.17618   0.66462   0.10861
H          H       0.05425   0.30350   0.36539   0.10089
H          H       0.84204   0.70992   0.38771   0.12068
H          H       0.88900   0.31960   0.66671   0.10835
H          H       0.14861   0.71041   0.60782   0.11983
H          H       0.44167   0.19440   0.63713   0.10573
H          H       0.58894   0.81545   0.65849   0.10484
H          H       0.68711   0.21240   0.39923   0.12271
H          H       0.38535   0.82099   0.34392   0.10743
H          H       0.91818   0.68295   0.65494   0.10941
H          H       0.10488   0.29306   0.61610   0.11831
H          H       0.08032   0.68240   0.34057   0.10694
H          H       0.84352   0.28522   0.41741   0.12860
H          H       0.96710   0.81984   0.36459   0.12368
H          H       0.04915   0.18742   0.35961   0.11136
H          H       0.04024   0.82124   0.64974   0.12509
H          H       0.85159   0.21282   0.59373   0.12442
H          H       0.46635   0.30943   0.38022   0.11184
H          H       0.55826   0.67586   0.35017   0.12285
H          H       0.62779   0.28776   0.59608   0.12676
H          H       0.42667   0.67625   0.64751   0.12374
H          H       0.03471   0.19790   0.60381   0.11061
H          H       0.90762   0.79068   0.59600   0.12505
H          H       0.87500   0.17307   0.33896   0.12261
H          H       0.13283   0.78754   0.40680   0.12352
H          H       0.60735   0.70923   0.59276   0.12478
H          H       0.47458   0.31510   0.63196   0.12053
H          H       0.38377   0.70957   0.40637   0.12582
H          H       0.65371   0.32244   0.34160   0.11986
H          H       0.91962   0.83467   0.44022   0.12029
H          H       0.08411   0.17108   0.43325   0.11375
H          H       0.08285   0.83537   0.57221   0.12393
H          H       0.85370   0.19804   0.51625   0.12362
H          H       0.43502   0.32444   0.45663   0.11765
H          H       0.60998   0.66206   0.42743   0.12250
H          H       0.62536   0.30358   0.52129   0.12461
H          H       0.37805   0.66223   0.56880   0.12323
H          H       0.06747   0.18303   0.52625   0.11526
H          H       0.89256   0.80653   0.52066   0.11868
H          H       0.84897   0.15961   0.41803   0.12555
H          H       0.13508   0.80216   0.48614   0.11994
H          H       0.62126   0.69412   0.51516   0.12032
H          H       0.42785   0.33047   0.55704   0.11858
H          H       0.36887   0.69432   0.48314   0.12057
H          H       0.65584   0.33780   0.41911   0.12360
H          H       0.66005   0.84758   0.43040   0.11405
H          H       0.33241   0.15443   0.41547   0.11376
H          H       0.36205   0.84590   0.57498   0.11622
H          H       0.84680   0.15115   0.56380   0.12303
H          H       0.19657   0.34893   0.42789   0.10897
H          H       0.87740   0.65235   0.42817   0.11751
H          H       0.67754   0.34779   0.57796   0.11709
H          H       0.10895   0.65293   0.56655   0.11377
H          H       0.23290   0.15363   0.56873   0.11197
H          H       0.77100   0.84672   0.58362   0.11471
H          H       0.59915   0.15416   0.43519   0.12113
H          H       0.16896   0.84704   0.43410   0.11553
H          H       0.70731   0.65370   0.57231   0.11857
H          H       0.21756   0.34613   0.58588   0.11349
H          H       0.29567   0.65326   0.42567   0.11890
H          H       0.86707   0.34686   0.43735   0.11546
H          H       0.65266   0.87549   0.43401   0.10818
H          H       0.31852   0.12623   0.41214   0.11564
H          H       0.36342   0.87413   0.57784   0.12422
H          H       0.84149   0.12343   0.55785   0.11334
H          H       0.20036   0.37679   0.43379   0.10342
H          H       0.88447   0.62428   0.43125   0.11514
H          H       0.69072   0.37606   0.57821   0.12314
H          H       0.10597   0.62466   0.56490   0.11600
H          H       0.21891   0.12566   0.56485   0.10417
H          H       0.75302   0.87480   0.58753   0.12013
H          H       0.60220   0.12585   0.42758   0.12193
H          H       0.17223   0.87509   0.43645   0.11095
H          H       0.72332   0.62551   0.57619   0.11738
H          H       0.22563   0.37422   0.59146   0.11681
H          H       0.28448   0.62513   0.42252   0.11840
H          H       0.86726   0.37462   0.43579   0.10995
H          H       0.65297   0.80232   0.29766   0.06368
H          H       0.34630   0.19576   0.28287   0.06722
H          H       0.34926   0.80134   0.70784   0.06624
H          H       0.66744   0.19066   0.72531   0.05694
H          H       0.14825   0.30741   0.28057   0.06267
H          H       0.86225   0.70108   0.30031   0.06618
H          H       0.82001   0.30860   0.72933   0.06230
H          H       0.11874   0.70262   0.69394   0.06280
H          H       0.33655   0.19263   0.71203   0.06338
H          H       0.69814   0.80894   0.72522   0.06187
H          H       0.62681   0.19738   0.29243   0.06694
H          H       0.32814   0.80969   0.27828   0.05978
H          H       0.80730   0.68962   0.72240   0.06295
H          H       0.14725   0.30231   0.70508   0.06606
H          H       0.19150   0.68975   0.27478   0.06424
H          H       0.87479   0.30448   0.29339   0.06862
H          H       0.63459   0.80229   0.80678   0.10403
H          H       0.39547   0.19833   0.79422   0.09867
H          H       0.38832   0.80293   0.19635   0.10298
H          H       0.57842   0.20171   0.20662   0.10082
H          H       0.09775   0.29785   0.78921   0.09839
H          H       0.84771   0.69552   0.80884   0.10766
H          H       0.91992   0.29931   0.20939   0.09719
H          H       0.14740   0.69621   0.18834   0.10509
H          H       0.37236   0.19917   0.19567   0.10462
H          H       0.61340   0.80024   0.21143   0.09922
H          H       0.61972   0.19628   0.80745   0.10108
H          H       0.40654   0.79758   0.79158   0.09982
H          H       0.93536   0.70685   0.22026   0.09603
H          H       0.11930   0.30269   0.19528   0.10377
H          H       0.03765   0.70853   0.77329   0.09162
H          H       0.88034   0.30132   0.81173   0.10444
H          H       0.62997   0.78457   0.87676   0.10356
H          H       0.39518   0.21519   0.86785   0.10382
H          H       0.38737   0.78526   0.12529   0.10440
H          H       0.59092   0.21842   0.13388   0.10163
H          H       0.10647   0.28171   0.86327   0.10575
H          H       0.83992   0.71303   0.87983   0.10746
H          H       0.89946   0.28335   0.13351   0.10652
H          H       0.15410   0.71419   0.11928   0.10571
H          H       0.36822   0.21585   0.12299   0.10636
H          H       0.61224   0.78447   0.13567   0.10406
H          H       0.62071   0.21351   0.87956   0.10531
H          H       0.40394   0.78172   0.86643   0.10298
H          H       0.92538   0.72260   0.14524   0.10745
H          H       0.13030   0.28566   0.12237   0.10772
H          H       0.04858   0.72315   0.85138   0.10368
H          H       0.86848   0.28368   0.88195   0.10431
H          H       0.88195   0.75414   0.79808   0.11044
H          H       0.10915   0.24352   0.79708   0.11348
H          H       0.11343   0.75662   0.19961   0.10931
H          H       0.90193   0.24345   0.20212   0.11126
H          H       0.39934   0.25415   0.79507   0.11283
H          H       0.63308   0.74562   0.79121   0.11585
H          H       0.62075   0.25506   0.20614   0.11199
H          H       0.35071   0.74695   0.21237   0.11558
H          H       0.12759   0.24751   0.20129   0.11342
H          H       0.88693   0.75414   0.20250   0.11065
H          H       0.87188   0.24431   0.80185   0.11260
H          H       0.09921   0.75437   0.80254   0.10673
H          H       0.55863   0.74049   0.19119   0.11101
H          H       0.39436   0.25665   0.20146   0.11206
H          H       0.43102   0.73862   0.81462   0.10881
H          H       0.61678   0.25412   0.79745   0.11115
H          H       0.87538   0.77138   0.72634   0.11874
H          H       0.11387   0.22666   0.72369   0.11766
H          H       0.12159   0.77404   0.27173   0.11338
H          H       0.89062   0.22653   0.27582   0.11927
H          H       0.39259   0.27068   0.72130   0.11949
H          H       0.65077   0.72838   0.71941   0.11856
H          H       0.64348   0.27095   0.28228   0.11985
H          H       0.33397   0.72935   0.28260   0.11745
H          H       0.13918   0.23105   0.27516   0.11922
H          H       0.89248   0.77052   0.27762   0.11954
H          H       0.86246   0.22736   0.72921   0.11785
H          H       0.09811   0.77071   0.72834   0.11916
H          H       0.56541   0.72385   0.26548   0.11410
H          H       0.37901   0.27358   0.27448   0.11957
H          H       0.42427   0.72291   0.73821   0.11303
H          H       0.63483   0.27144   0.72574   0.11751
H          H       0.74898   0.92392   0.41403   0.10259
H          H       0.23039   0.08115   0.44161   0.11417
H          H       0.26482   0.91799   0.56023   0.11381
H          H       0.79948   0.07419   0.57917   0.10410
H          H       0.25749   0.42355   0.41480   0.10098
H          H       0.72840   0.57462   0.40805   0.10555
H          H       0.77824   0.41870   0.55337   0.11437
H          H       0.27423   0.57536   0.58884   0.10697
H          H       0.36889   0.08061   0.59088   0.10311
H          H       0.65405   0.91697   0.56535   0.11274
H          H       0.65156   0.08398   0.43474   0.11505
H          H       0.31275   0.92167   0.40409   0.10267
H          H       0.85458   0.58425   0.55626   0.11060
H          H       0.18587   0.41836   0.56887   0.11339
H          H       0.13505   0.58413   0.44272   0.11160
H          H       0.81381   0.42131   0.39659   0.10227
H          H       0.68525   0.95124   0.42158   0.11271
H          H       0.28681   0.05367   0.43208   0.11335
H          H       0.32379   0.94548   0.57080   0.11441
H          H       0.72298   0.04754   0.57094   0.11274
H          H       0.18562   0.45051   0.41951   0.11156
H          H       0.79000   0.54736   0.41812   0.11356
H          H       0.84107   0.44603   0.56155   0.11357
H          H       0.21311   0.54796   0.57907   0.11114
H          H       0.42471   0.05337   0.58182   0.11160
H          H       0.59468   0.94448   0.57365   0.11495
H          H       0.57503   0.05704   0.42610   0.11611
H          H       0.37453   0.94888   0.41440   0.11398
H          H       0.91381   0.55684   0.56633   0.11559
H          H       0.11821   0.44566   0.57407   0.11180
H          H       0.07736   0.55681   0.43211   0.11386
H          H       0.87951   0.44849   0.40417   0.11531
H          H       0.27064   0.39887   0.44860   0.05785
H          H       0.74965   0.60145   0.43615   0.06728
H          H       0.76522   0.39712   0.43344   0.06004
H          H       0.24645   0.60212   0.56157   0.06790
H          H       0.74559   0.89845   0.44461   0.06161
H          H       0.31545   0.10417   0.55675   0.05966
H          H       0.27741   0.89711   0.43753   0.05836
H          H       0.78609   0.10043   0.55304   0.06135
C          C       0.73747   0.75799   0.12012  -0.06377
C          C       0.25760   0.24332   0.11486  -0.06157
C          C       0.25553   0.75707   0.88315  -0.06755
C          C       0.73257   0.24158   0.88704  -0.05898
C          C       0.25785   0.25894   0.11471  -0.05943
C          C       0.73640   0.74246   0.11978  -0.05679
C          C       0.73838   0.25721   0.88651  -0.05679
C          C       0.24702   0.74158   0.88302  -0.05796
C          C       0.26162   0.24149   0.87960  -0.06012
C          C       0.74273   0.75716   0.88371  -0.05642
C          C       0.74495   0.24237   0.12081  -0.06090
C          C       0.26477   0.75799   0.11760  -0.05377
C          C       0.74054   0.74150   0.88341  -0.06417
C          C       0.25663   0.25704   0.87823  -0.05874
C          C       0.25785   0.74235   0.11857  -0.06437
C          C       0.75259   0.25793   0.12136  -0.06372
C          C       0.67127   0.80913   0.44405  -0.15933
C          C       0.36515   0.19127   0.43601  -0.15649
C          C       0.31093   0.80782   0.56151  -0.16248
C          C       0.68857   0.17324   0.58828  -0.17443
C          C       0.12080   0.31641   0.42853  -0.15855
C          C       0.81942   0.69188   0.44020  -0.16213
C          C       0.83219   0.32483   0.59309  -0.16755
C          C       0.17252   0.69214   0.55582  -0.16402
C          C       0.37590   0.18331   0.57080  -0.15996
C          C       0.64798   0.82230   0.58689  -0.17078
C          C       0.70159   0.19309   0.44747  -0.16258
C          C       0.33265   0.82477   0.41855  -0.17643
C          C       0.86075   0.67706   0.58119  -0.16835
C          C       0.14947   0.30984   0.56129  -0.15546
C          C       0.13598   0.67647   0.41391  -0.17006
C          C       0.81426   0.30597   0.45975  -0.16378
C          C       0.69560   0.80106   0.40078  -0.17803
C          C       0.34760   0.20007   0.39409  -0.18255
C          C       0.28786   0.80003   0.60493  -0.17856
C          C       0.69381   0.18134   0.63242  -0.15624
C          C       0.13784   0.30833   0.38454  -0.17485
C          C       0.79186   0.69943   0.39663  -0.17370
C          C       0.82903   0.31608   0.63538  -0.16598
C          C       0.19876   0.69984   0.59974  -0.17306
C          C       0.35817   0.19165   0.61402  -0.17392
C          C       0.65835   0.81364   0.62918  -0.17081
C          C       0.71931   0.20071   0.40343  -0.17460
C          C       0.32847   0.81670   0.37434  -0.16587
C          C       0.85090   0.68531   0.62490  -0.17250
C          C       0.17431   0.30148   0.60367  -0.17819
C          C       0.14675   0.68480   0.37100  -0.17163
C          C       0.80476   0.29688   0.41767  -0.16188
C          C       0.80165   0.80492   0.37124   0.20065
C          C       0.23375   0.19849   0.36600   0.20176
C          C       0.19110   0.80486   0.63748   0.19720
C          C       0.75230   0.19593   0.63537   0.17809
C          C       0.26294   0.30574   0.36643   0.19916
C          C       0.69813   0.69368   0.36338   0.19377
C          C       0.75414   0.30257   0.63742   0.18400
C          C       0.28851   0.69401   0.63396   0.19361
C          C       0.23377   0.19678   0.62659   0.20081
C          C       0.75393   0.80219   0.63361   0.18700
C          C       0.78360   0.19367   0.36409   0.19287
C          C       0.25391   0.80320   0.36891   0.17932
C          C       0.75771   0.69694   0.63013   0.18587
C          C       0.29102   0.30352   0.63005   0.19875
C          C       0.23725   0.69684   0.36763   0.18730
C          C       0.74832   0.30282   0.37429   0.18892
C          C       0.88311   0.81699   0.38655  -0.16243
C          C       0.13790   0.18824   0.38116  -0.16804
C          C       0.11683   0.81766   0.62507  -0.16182
C          C       0.80592   0.20167   0.59185  -0.13199
C          C       0.36938   0.31153   0.39352  -0.15274
C          C       0.63133   0.68027   0.37555  -0.15893
C          C       0.68413   0.29821   0.59474  -0.13768
C          C       0.35459   0.68051   0.62176  -0.15785
C          C       0.12998   0.19378   0.59399  -0.15040
C          C       0.83483   0.79954   0.59294  -0.13727
C          C       0.82819   0.17870   0.36987  -0.16893
C          C       0.18859   0.79801   0.41091  -0.13345
C          C       0.67823   0.70019   0.58910  -0.13764
C          C       0.38358   0.31378   0.61203  -0.15939
C          C       0.31457   0.70028   0.40930  -0.13834
C          C       0.69941   0.31787   0.37502  -0.17648
C          C       0.85638   0.82528   0.42917  -0.16494
C          C       0.15805   0.17913   0.42208  -0.15673
C          C       0.14016   0.82544   0.58162  -0.16135
C          C       0.80600   0.19338   0.54819  -0.18784
C          C       0.35169   0.31984   0.43670  -0.15658
C          C       0.66029   0.67258   0.41877  -0.17019
C          C       0.68305   0.30718   0.55308  -0.17654
C          C       0.32795   0.67277   0.57782  -0.17063
C          C       0.14858   0.18547   0.55089  -0.16181
C          C       0.82640   0.80840   0.55100  -0.17386
C          C       0.81315   0.17118   0.41434  -0.16197
C          C       0.18974   0.80620   0.45486  -0.18511
C          C       0.68639   0.69182   0.54576  -0.17910
C          C       0.35729   0.32230   0.57028  -0.15891
C          C       0.30633   0.69174   0.45175  -0.17925
C          C       0.70118   0.32648   0.41839  -0.16542
C          C       0.75042   0.82137   0.45851   0.15026
C          C       0.27226   0.18063   0.45001   0.15555
C          C       0.23731   0.82062   0.54926   0.14683
C          C       0.74493   0.17904   0.54508   0.17075
C          C       0.22699   0.32213   0.45507   0.16424
C          C       0.75446   0.67836   0.45174   0.15288
C          C       0.75779   0.32063   0.55124   0.16080
C          C       0.23579   0.67850   0.54443   0.15552
C          C       0.27201   0.18013   0.53915   0.16808
C          C       0.73351   0.82002   0.54745   0.16679
C          C       0.75097   0.17835   0.45427   0.14738
C          C       0.26017   0.81990   0.45944   0.17005
C          C       0.77689   0.67998   0.54116   0.16616
C          C       0.23942   0.32049   0.54465   0.15736
C          C       0.21676   0.67968   0.45489   0.16789
C          C       0.75948   0.32067   0.46154   0.14641
C          C       0.68333   0.85343   0.46475  -0.18455
C          C       0.30782   0.14811   0.44816  -0.19740
C          C       0.32082   0.85229   0.54471  -0.17886
C          C       0.79137   0.14573   0.53425  -0.17421
C          C       0.20542   0.35448   0.46367  -0.19575
C          C       0.84022   0.64651   0.46019  -0.17853
C          C       0.71867   0.35370   0.54686  -0.18421
C          C       0.14973   0.64676   0.53555  -0.17445
C          C       0.25353   0.14767   0.53453  -0.19420
C          C       0.74433   0.85294   0.55087  -0.19201
C          C       0.65202   0.14743   0.46188  -0.16952
C          C       0.21344   0.85298   0.46520  -0.17956
C          C       0.74606   0.64729   0.54146  -0.18407
C          C       0.21693   0.35281   0.55251  -0.20551
C          C       0.25331   0.64706   0.45591  -0.18401
C          C       0.82419   0.35313   0.46772  -0.17488
C          C       0.68028   0.86924   0.46676  -0.16145
C          C       0.29977   0.13237   0.44623  -0.14006
C          C       0.32124   0.86808   0.54645  -0.13724
C          C       0.78870   0.12996   0.53075  -0.16305
C          C       0.20883   0.37024   0.46737  -0.15646
C          C       0.84224   0.63069   0.46152  -0.16305
C          C       0.72575   0.36951   0.54719  -0.13755
C          C       0.15009   0.63094   0.53498  -0.16292
C          C       0.24566   0.13189   0.53213  -0.16079
C          C       0.73452   0.86864   0.55326  -0.14057
C          C       0.65392   0.13166   0.45741  -0.13759
C          C       0.21599   0.86880   0.46660  -0.16462
C          C       0.75447   0.63158   0.54369  -0.14897
C          C       0.22054   0.36858   0.55569  -0.13459
C          C       0.24775   0.63134   0.45419  -0.15193
C          C       0.82375   0.36893   0.46691  -0.16087
C          C       0.74245   0.79570   0.29440   0.07290
C          C       0.27564   0.20506   0.28512   0.06192
C          C       0.25789   0.79507   0.71191   0.07197
C          C       0.72007   0.20136   0.71934   0.04713
C          C       0.22250   0.29849   0.28440   0.06202
C          C       0.76378   0.70501   0.29173   0.06948
C          C       0.77754   0.29730   0.72156   0.05069
C          C       0.21780   0.70569   0.70519   0.07106
C          C       0.26965   0.20230   0.70935   0.06643
C          C       0.73920   0.79757   0.71822   0.05448
C          C       0.71950   0.20345   0.28895   0.07239
C          C       0.27768   0.79880   0.28372   0.04701
C          C       0.76981   0.70115   0.71563   0.04725
C          C       0.23353   0.29500   0.70698   0.06916
C          C       0.22539   0.70142   0.28267   0.04494
C          C       0.80073   0.29550   0.29418   0.06113
C          C       0.68681   0.79158   0.80458  -0.12989
C          C       0.33328   0.20829   0.79523  -0.12651
C          C       0.33067   0.79256   0.19731  -0.13301
C          C       0.64945   0.21085   0.20571  -0.12558
C          C       0.16470   0.28835   0.79079  -0.12339
C          C       0.80189   0.70659   0.80485  -0.12839
C          C       0.85459   0.28958   0.20818  -0.12400
C          C       0.19037   0.70742   0.19409  -0.12923
C          C       0.32079   0.20991   0.19731  -0.12482
C          C       0.67421   0.79018   0.20914  -0.12157
C          C       0.67228   0.20705   0.80626  -0.13202
C          C       0.33777   0.78824   0.79435  -0.12289
C          C       0.85177   0.71403   0.21341  -0.12368
C          C       0.17745   0.29241   0.19675  -0.12774
C          C       0.12492   0.71489   0.78289  -0.12471
C          C       0.82350   0.29091   0.80839  -0.13323
C          C       0.68537   0.78168   0.84416  -0.13949
C          C       0.33257   0.21775   0.83662  -0.13884
C          C       0.32917   0.78262   0.15725  -0.13979
C          C       0.65699   0.22009   0.16472  -0.13836
C          C       0.16949   0.27928   0.83240  -0.14021
C          C       0.79689   0.71649   0.84506  -0.14026
C          C       0.84299   0.28064   0.16579  -0.13926
C          C       0.19485   0.71749   0.15492  -0.14197
C          C       0.31691   0.21915   0.15610  -0.14214
C          C       0.67420   0.78138   0.16644  -0.13889
C          C       0.67349   0.21680   0.84684  -0.14260
C          C       0.33634   0.77938   0.83640  -0.13872
C          C       0.84567   0.72275   0.17102  -0.13839
C          C       0.18447   0.28289   0.15564  -0.14101
C          C       0.13126   0.72305   0.82700  -0.13713
C          C       0.81663   0.28103   0.84790  -0.13990
C          C       0.75111   0.76766   0.84211   0.07726
C          C       0.25586   0.23097   0.83738   0.08440
C          C       0.25642   0.76899   0.15829   0.07740
C          C       0.74590   0.23220   0.16341   0.08647
C          C       0.25246   0.26664   0.83422   0.08341
C          C       0.74071   0.73105   0.84099   0.07498
C          C       0.76142   0.26780   0.16509   0.08660
C          C       0.24967   0.73215   0.16072   0.07501
C          C       0.25259   0.23324   0.15742   0.08444
C          C       0.74738   0.76792   0.16378   0.09166
C          C       0.73979   0.23088   0.84547   0.07909
C          C       0.25187   0.76684   0.83968   0.09221
C          C       0.74087   0.73259   0.16338   0.08600
C          C       0.25850   0.26945   0.15713   0.08249
C          C       0.24101   0.73190   0.83831   0.08756
C          C       0.74578   0.26734   0.84413   0.07638
C          C       0.82458   0.76445   0.79965  -0.12237
C          C       0.17357   0.23377   0.79658  -0.12361
C          C       0.17735   0.76646   0.19950  -0.12377
C          C       0.83176   0.23427   0.20360  -0.12082
C          C       0.33378   0.26377   0.79371  -0.11962
C          C       0.68337   0.73486   0.79520  -0.12409
C          C       0.68713   0.26465   0.20723  -0.12402
C          C       0.30283   0.73602   0.20739  -0.12523
C          C       0.18339   0.23708   0.20034  -0.12391
C          C       0.82766   0.76429   0.20434  -0.12464
C          C       0.81222   0.23413   0.80289  -0.12349
C          C       0.16557   0.76393   0.80015  -0.12337
C          C       0.63959   0.73289   0.19762  -0.12374
C          C       0.33170   0.26655   0.20025  -0.12286
C          C       0.34600   0.73179   0.80574  -0.12485
C          C       0.67711   0.26425   0.79984  -0.12050
C          C       0.82187   0.77405   0.75954  -0.10758
C          C       0.17548   0.22439   0.75539  -0.10051
C          C       0.18143   0.77616   0.23987  -0.10679
C          C       0.82562   0.22493   0.24439  -0.10238
C          C       0.33004   0.27294   0.75251  -0.10099
C          C       0.69206   0.72522   0.75483  -0.10619
C          C       0.69890   0.27351   0.24943  -0.10120
C          C       0.29557   0.72614   0.24656  -0.10410
C          C       0.18868   0.22792   0.24147  -0.10369
C          C       0.83092   0.77340   0.24641  -0.10178
C          C       0.80825   0.22462   0.76207  -0.10626
C          C       0.16479   0.77304   0.75871  -0.10419
C          C       0.64328   0.72365   0.23886  -0.09933
C          C       0.32303   0.27596   0.24135  -0.10243
C          C       0.34207   0.72305   0.76288  -0.09910
C          C       0.68612   0.27391   0.76010  -0.10573
C          C       0.75056   0.78771   0.76082   0.06036
C          C       0.25802   0.21169   0.75352   0.05541
C          C       0.26174   0.78918   0.24020   0.06221
C          C       0.73290   0.21316   0.24608   0.05254
C          C       0.24416   0.28534   0.75025   0.05437
C          C       0.75384   0.71096   0.75856   0.05630
C          C       0.78450   0.28602   0.25047   0.05286
C          C       0.23792   0.71160   0.24100   0.05562
C          C       0.26072   0.21435   0.24119   0.05286
C          C       0.75158   0.78634   0.24989   0.05029
C          C       0.73478   0.21106   0.76251   0.05979
C          C       0.25142   0.78535   0.75506   0.05075
C          C       0.75095   0.71431   0.24772   0.05499
C          C       0.24251   0.28888   0.24084   0.05278
C          C       0.23018   0.71463   0.75056   0.05634
C          C       0.76196   0.28732   0.76340   0.06162
C          C       0.71678   0.92853   0.44914  -0.13476
C          C       0.27111   0.07481   0.47215  -0.10869
C          C       0.28589   0.92501   0.52860  -0.10359
C          C       0.75257   0.07041   0.54517  -0.13120
C          C       0.22883   0.42847   0.44986  -0.13702
C          C       0.76815   0.57070   0.44294  -0.13025
C          C       0.79737   0.42553   0.52115  -0.10224
C          C       0.23256   0.57120   0.55429  -0.13104
C          C       0.34861   0.07470   0.55630  -0.13181
C          C       0.66298   0.92468   0.53457  -0.10018
C          C       0.66830   0.07577   0.46373  -0.09865
C          C       0.31257   0.92693   0.44054  -0.13221
C          C       0.83877   0.57603   0.52665  -0.10246
C          C       0.18901   0.42566   0.53687  -0.10505
C          C       0.15365   0.57605   0.47190  -0.10432
C          C       0.81787   0.42683   0.43264  -0.13470
C          C       0.68179   0.94380   0.45329  -0.13412
C          C       0.30225   0.05947   0.46723  -0.13348
C          C       0.31890   0.94031   0.53422  -0.12869
C          C       0.71003   0.05539   0.54065  -0.13768
C          C       0.18863   0.44357   0.45236  -0.13254
C          C       0.80112   0.55539   0.44861  -0.13910
C          C       0.83309   0.44071   0.52533  -0.12552
C          C       0.19921   0.55584   0.54880  -0.13942
C          C       0.37973   0.05938   0.55144  -0.12984
C          C       0.63015   0.93993   0.53897  -0.12931
C          C       0.62582   0.06085   0.45923  -0.12890
C          C       0.34667   0.94221   0.44613  -0.12869
C          C       0.87116   0.56087   0.53221  -0.12662
C          C       0.15044   0.44075   0.53947  -0.12969
C          C       0.12290   0.56081   0.46603  -0.12891
C          C       0.85451   0.44210   0.43682  -0.13323
C          C       0.72448   0.74986   0.02697  -0.12102
C          C       0.26324   0.25073   0.02171  -0.12417
C          C       0.27057   0.74927   0.97545  -0.11594
C          C       0.72463   0.25014   0.97912  -0.12243
C          C       0.26774   0.25037   0.97171  -0.12112
C          C       0.72964   0.74959   0.97688  -0.12223
C          C       0.73335   0.25025   0.02895  -0.12256
C          C       0.27791   0.74932   0.02546  -0.12608
C          C       0.56263   0.03654   0.49817  -0.07212
C          C       0.42607   0.96359   0.49872  -0.07402
C          C       0.43106   0.03701   0.49981  -0.06954
C          C       0.55773   0.96384   0.49911  -0.06916
C          C       0.06377   0.53619   0.50334  -0.06973
C          C       0.93753   0.46367   0.49025  -0.07545
C          C       0.93271   0.53611   0.49632  -0.07094
C          C       0.06778   0.46392   0.49741  -0.06840
C          C       0.70594   0.87721   0.51113   0.18514
C          C       0.27000   0.12382   0.48815   0.17548
C          C       0.27003   0.87667   0.50742   0.19258
C          C       0.72129   0.12263   0.49172   0.19439
C          C       0.21924   0.37773   0.51346   0.17381
C          C       0.79784   0.62290   0.50327   0.19058
C          C       0.77397   0.37750   0.50656   0.19370
C          C       0.20045   0.62296   0.49413   0.19219
C          C       0.71762   0.84493   0.50669   0.17838
C          C       0.28488   0.15613   0.49240   0.19140
C          C       0.26577   0.84446   0.50421   0.16841
C          C       0.72441   0.15466   0.49962   0.15854
C          C       0.21259   0.34539   0.50615   0.19348
C          C       0.78920   0.65506   0.49960   0.17011
C          C       0.76816   0.34521   0.50711   0.16378
C          C       0.20361   0.65503   0.49658   0.17001
C          C       0.71921   0.90224   0.48194   0.05777
C          C       0.29109   0.09940   0.52017   0.05210
C          C       0.27578   0.90141   0.47579   0.06437
C          C       0.74858   0.09719   0.51633   0.06526
C          C       0.24236   0.40277   0.48553   0.05069
C          C       0.77865   0.59772   0.47322   0.06544
C          C       0.77567   0.40176   0.47111   0.06508
C          C       0.21805   0.59807   0.52453   0.06549
C          C       0.63211   0.94947   0.49767   0.08255
C          C       0.36262   0.05171   0.50625   0.08118
C          C       0.35518   0.94892   0.49319   0.08417
C          C       0.64005   0.05070   0.49871   0.08727
C          C       0.14310   0.44963   0.49676   0.08021
C          C       0.86053   0.55056   0.49234   0.08413
C          C       0.86736   0.44904   0.48337   0.08703
C          C       0.13666   0.55067   0.50556   0.08710
C          C       0.70207   0.91860   0.48898   0.05730
C          C       0.29915   0.08286   0.51613   0.06135
C          C       0.28705   0.91792   0.48185   0.05838
C          C       0.72702   0.08097   0.50779   0.05541
C          C       0.22337   0.41910   0.49140   0.06393
C          C       0.79294   0.58135   0.48099   0.05543
C          C       0.79374   0.41821   0.47491   0.05914
C          C       0.20334   0.58167   0.51696   0.05489
C          C       0.48966   0.00799   0.49822  -0.12264
C          C       0.48889   0.99245   0.49890  -0.12596
C          C       0.99549   0.50767   0.50626  -0.12528
C          C       0.99628   0.49217   0.50511  -0.12237
S          S       0.72020   0.73320   0.06254   0.09746
S          S       0.26139   0.26768   0.05674   0.09138
S          S       0.25937   0.73241   0.93992   0.09885
S          S       0.72268   0.26669   0.94372   0.08833
S          S       0.26190   0.23406   0.05706   0.08828
S          S       0.71986   0.76683   0.06228   0.07569
S          S       0.70771   0.23321   0.94493   0.07615
S          S       0.27754   0.76612   0.94082   0.08392
S          S       0.26766   0.26679   0.93511   0.09129
S          S       0.72839   0.73267   0.94141   0.08217
S          S       0.74531   0.26711   0.06419   0.09286
S          S       0.27658   0.73283   0.06133   0.07784
S          S       0.73392   0.76623   0.94165   0.09358
S          S       0.27866   0.23320   0.93804   0.08397
S          S       0.29437   0.76618   0.05991   0.08536
S          S       0.72971   0.23336   0.06305   0.09586
S          S       0.63555   0.01857   0.49570   0.07947
S          S       0.34640   0.98121   0.49870   0.08301
S          S       0.34915   0.01946   0.49953   0.08170
S          S       0.63379   0.98170   0.49932   0.08041
S          S       0.13788   0.51864   0.51492   0.07967
S          S       0.85507   0.48099   0.49696   0.07774
S          S       0.85291   0.51852   0.49995   0.08426
S          S       0.13938   0.48150   0.51282   0.07903
N          N       0.82958   0.79646   0.32852  -0.27343
N          N       0.20993   0.20748   0.32450  -0.25782
N          N       0.16528   0.79652   0.68004  -0.27494
N          N       0.76560   0.20527   0.67700  -0.29290
N          N       0.28865   0.29683   0.32452  -0.26744
N          N       0.66815   0.70130   0.31956  -0.27696
N          N       0.74231   0.29297   0.67773  -0.29169
N          N       0.31502   0.70143   0.67892  -0.27793
N          N       0.20787   0.20533   0.66907  -0.27434
N          N       0.77263   0.79300   0.67474  -0.28495
N          N       0.80958   0.20208   0.32156  -0.26156
N          N       0.23690   0.79439   0.32622  -0.29150
N          N       0.73951   0.70593   0.67209  -0.28535
N          N       0.31875   0.29513   0.67255  -0.27195
N          N       0.25397   0.70607   0.32690  -0.28511
N          N       0.73288   0.29316   0.33340  -0.26981
N          N       0.70101   0.89292   0.51767  -0.28613
N          N       0.26804   0.10796   0.48271  -0.28991
N          N       0.27450   0.89247   0.51321  -0.28558
N          N       0.71392   0.10695   0.48356  -0.29107
N          N       0.21919   0.39347   0.52106  -0.28801
N          N       0.80001   0.60719   0.50909  -0.28638
N          N       0.77541   0.39335   0.50988  -0.28052
N          N       0.19947   0.60724   0.48835  -0.28695
N          N       0.21013   0.32950   0.50219  -0.17291
N          N       0.78149   0.67111   0.49735  -0.13413
N          N       0.76257   0.32905   0.50687  -0.12481
N          N       0.20829   0.67109   0.49862  -0.13972
N          N       0.72497   0.82894   0.50428  -0.13879
N          N       0.29331   0.17201   0.49386  -0.17415
N          N       0.25945   0.82835   0.50392  -0.13089
N          N       0.73761   0.17080   0.50031  -0.12078

