
##########################################################################
#               Crystallographic Information Format file
#               Produced by PyCifRW module
#
#  This is a CIF file.  CIF has been adopted by the International
#  Union of Crystallography as the standard for data archiving and
#  transmission.
#
#  For information on this file format, follow the CIF links at
#  http://www.iucr.org
##########################################################################

data_image0

_cell_length_a                          36.4176
_cell_length_b                          38.3246
_cell_length_c                          8.09783
_cell_angle_alpha                       92.8261
_cell_angle_beta                        92.6833
_cell_angle_gamma                       121.443
_symmetry_space_group_name_H-M          'P 1'
_space_group_name_Hall                  'P 1'
loop_
  _atom_site_type_symbol
  _atom_site_label
  _atom_site_fract_x
  _atom_site_fract_y
  _atom_site_fract_z
  _atom_site_charge
         C         C         0.68305   0.89946   0.44684   -0.188941           
         C         C         0.37670   0.68314   0.94232   0.031144  
         C         C         0.42368   0.70448   0.92422   0.059782  
         C         C         0.44916   0.69184   0.00655   -0.135131           
         C         C         0.49374   0.71340   -0.00065  -0.159824           
         C         C         0.51448   0.74799   0.90720   0.195969  
         C         C         0.48879   0.75988   0.82024   -0.181821           
         C         C         0.44426   0.73841   0.82894   -0.120811           
         N         N         0.55957   0.77001   0.92133   -0.277108           
         C         C         0.58160   0.79359   0.80945   0.075853  
         C         C         0.62839   0.82049   0.82680   -0.006567           
         C         C         0.65582   0.82309   0.96422   0.206565  
         C         C         0.70023   0.84976   0.96297   -0.265507           
         O         O         0.63720   0.79877   0.09006   -0.152925           
         C         C         0.35269   0.64016   0.92123   -0.182649           
         C         C         0.35486   0.22709   0.78249   -0.187466           
         C         C         0.05403   0.01834   0.27542   0.034776  
         C         C         0.10123   0.03859   0.26644   0.062856  
         C         C         0.12604   0.02850   0.36917   -0.134441           
         C         C         0.17083   0.04994   0.36923   -0.160781           
         C         C         0.19244   0.08165   0.26407   0.195584  
         C         C         0.16741   0.09073   0.15671   -0.178440           
         C         C         0.12268   0.06943   0.15763   -0.117671           
         N         N         0.23764   0.10381   0.28260   -0.278696           
         C         C         0.25956   0.12362   0.16245   0.077236  
         C         C         0.30626   0.15098   0.17482   -0.007022           
         C         C         0.33517   0.15625   0.31196   0.202505  
         C         C         0.37903   0.18478   0.30635   -0.263444           
         O         O         0.31855   0.13235   0.44095   -0.155704           
         C         C         0.02944   0.97576   0.28172   -0.180900           
         C         C         0.01204   0.57187   0.17776   -0.182197           
         C         C         0.69710   0.33920   0.58938   0.030892  
         C         C         0.74389   0.35874   0.56847   0.064016  
         C         C         0.76978   0.34832   0.66167   -0.129503           
         C         C         0.81448   0.37061   0.65695   -0.156339           
         C         C         0.83498   0.40381   0.55758   0.186074  
         C         C         0.80871   0.41235   0.45470   -0.178667           
         C         C         0.76411   0.39003   0.46031   -0.113102           
         N         N         0.88011   0.42751   0.58199   -0.275464           
         C         C         0.90384   0.45550   0.48641   0.076955  
         C         C         0.95036   0.48314   0.52102   -0.011363           
         C         C         0.97602   0.48241   0.65707   0.201805  
         C         C         0.02058   0.50944   0.66783   -0.237725           
         O         O         0.96048   0.45440   0.77514   -0.184250           
         C         C         0.67121   0.29628   0.58529   -0.176146           
         C         C         0.11802   0.78905   0.43098   -0.188323           
         C         C         0.31070   0.68221   0.98645   0.037949  
         C         C         0.28621   0.70332   0.00234   0.073618  
         C         C         0.29436   0.73208   0.13546   -0.128270           
         C         C         0.27298   0.75338   0.13858   -0.154622           
         C         C         0.24289   0.74723   0.00715   0.195812  
         C         C         0.23239   0.71634   0.87918   -0.177046           
         C         C         0.25376   0.69494   0.87731   -0.122140           
         N         N         0.22523   0.77217   0.01741   -0.281901           
         C         C         0.21067   0.77959   0.88340   0.080798  
         C         C         0.19118   0.80456   0.87823   -0.006277           
         C         C         0.19433   0.83216   0.01036   0.201825  
         C         C         0.17413   0.85419   0.98553   -0.272396           
         O         O         0.21807   0.83645   0.15432   -0.155655           
         C         C         0.35620   0.70490   0.98169   0.008872  
         C         C         0.78183   0.12354   0.74369   -0.186976           
         C         C         0.98810   0.01989   0.27789   0.040493  
         C         C         0.96546   0.04304   0.27401   0.078554  
         C         C         0.96757   0.06696   0.41514   -0.133650           
         C         C         0.94824   0.09010   0.41134   -0.145769           
         C         C         0.92515   0.08964   0.26600   0.192398  
         C         C         0.92273   0.06543   0.12382   -0.170256           
         C         C         0.94260   0.04266   0.12832   -0.119505           
         N         N         0.90762   0.11465   0.27829   -0.280639           
         C         C         0.87939   0.11170   0.16642   0.074806  
         C         C         0.86122   0.13780   0.17010   -0.004906           
         C         C         0.86748   0.16629   0.30474   0.203585  
         C         C         0.84876   0.18985   0.28811   -0.272943           
         O         O         0.89136   0.16880   0.44481   -0.149950           
         C         C         0.03362   0.04119   0.28115   0.008699  
         C         C         0.44395   0.45611   0.08172   -0.188556           
         C         C         0.63311   0.34324   0.62227   0.034264  
         C         C         0.61115   0.36688   0.63349   0.074498  
         C         C         0.62328   0.39869   0.75863   -0.123545           
         C         C         0.60281   0.42072   0.76489   -0.157608           
         C         C         0.56979   0.41258   0.64319   0.196092  
         C         C         0.55632   0.37980   0.52082   -0.178019           
         C         C         0.57668   0.35743   0.51678   -0.118457           
         N         N         0.55266   0.43785   0.65715   -0.282389           
         C         C         0.53719   0.44504   0.52509   0.080549  
         C         C         0.51849   0.47062   0.52297   -0.008285           
         C         C         0.52240   0.49820   0.65679   0.204333  
         C         C         0.50271   0.52075   0.63472   -0.273960           
         O         O         0.54613   0.50177   0.79971   -0.156835           
         C         C         0.67833   0.36318   0.61419   0.007016  
         C         C         0.25972   0.32078   0.47436   -0.188042           
         C         C         0.30813   0.61696   0.93739   0.071549  
         C         C         0.28416   0.57142   0.91667   0.049962  
         C         C         0.23865   0.54701   0.91153   -0.127423           
         C         C         0.21642   0.50445   0.88372   -0.157681           
         C         C         0.23849   0.48350   0.86198   0.201332  
         C         C         0.28402   0.50747   0.87139   -0.182590           
         C         C         0.30591   0.55005   0.89772   -0.121417           
         N         N         0.21407   0.44065   0.84919   -0.277329           
         C         C         0.22671   0.41907   0.76960   0.098810  
         C         C         0.20462   0.37452   0.75944   -0.004530           
         C         C         0.16567   0.34820   0.83284   0.209447  
         C         C         0.14754   0.30594   0.80845   -0.238307           
         O         O         0.14736   0.36519   0.92312   -0.138699           
         C         C         0.28776   0.63917   0.96671   -0.177530           
         C         C         0.94525   0.66875   0.90772   -0.187223           
         C         C         0.98444   0.95420   0.28628   0.068813  
         C         C         0.95955   0.90896   0.28698   0.047362  
         C         C         0.91597   0.88647   0.32344   -0.124177           
         C         C         0.89248   0.84368   0.31012   -0.147663           
         C         C         0.91176   0.82130   0.26369   0.195495  
         C         C         0.95617   0.84375   0.23885   -0.172127           
         C         C         0.97892   0.88624   0.24685   -0.122132           
         N         N         0.88603   0.77844   0.25182   -0.257800           
         C         C         0.89761   0.75741   0.16247   0.087538  
         C         C         0.87631   0.71302   0.14658   0.004180  
         C         C         0.83580   0.68501   0.20569   0.215514  
         C         C         0.82109   0.64332   0.18719   -0.249887           
         O         O         0.81325   0.69998   0.27538   -0.116476           
         C         C         0.96429   0.97716   0.28070   -0.188305           
         C         C         0.58202   0.98273   0.31208   -0.185707           
         C         C         0.62648   0.27591   0.59746   0.070595  
         C         C         0.59894   0.23049   0.57796   0.054442  
         C         C         0.55679   0.20912   0.63073   -0.120071           
         C         C         0.53000   0.16670   0.59898   -0.157694           
         C         C         0.54417   0.14331   0.51490   0.207409  
         C         C         0.58619   0.16446   0.46135   -0.176761           
         C         C         0.61284   0.20678   0.49436   -0.130925           
         N         N         0.51583   0.10060   0.49254   -0.284917           
         C         C         0.53257   0.07800   0.47822   0.109942  
         C         C         0.50898   0.03348   0.45809   -0.004512           
         C         C         0.46498   0.00699   0.48771   0.216370  
         C         C         0.44716   0.96469   0.46418   -0.253787           
         O         O         0.44286   0.02445   0.54119   -0.139786           
         C         C         0.60813   0.30030   0.61326   -0.173271           
         C         C         0.34840   0.13334   0.56659   -0.191038           
         C         C         0.65105   0.32330   0.10752   0.048437  
         C         C         0.60350   0.30460   0.11230   0.068962  
         C         C         0.58250   0.31683   -0.00025  -0.131406           
         C         C         0.53795   0.29908   0.98573   -0.160794           
         C         C         0.51176   0.26809   0.08696   0.196108  
         C         C         0.53241   0.25623   0.20311   -0.177081           
         C         C         0.57707   0.27431   0.21570   -0.117280           
         N         N         0.46682   0.24925   0.05926   -0.279897           
         C         C         0.44343   0.23341   0.18145   0.082475  
         C         C         0.39652   0.20778   0.16931   -0.009328           
         C         C         0.36767   0.20277   0.03274   0.199051  
         C         C         0.32368   0.17464   0.03900   -0.266760           
         O         O         0.38467   0.22672   0.90389   -0.157654           
         C         C         0.67625   0.36536   0.08454   -0.185876           
         C         C         0.93620   0.46017   0.89735   -0.189714           
         C         C         0.29629   0.64506   0.48577   0.038455  
         C         C         0.24908   0.62786   0.48758   0.080956  
         C         C         0.22894   0.64126   0.37688   -0.127763           
         C         C         0.18473   0.62563   0.37224   -0.150583           
         C         C         0.15873   0.59630   0.47989   0.193476  
         C         C         0.17900   0.58329   0.59285   -0.173626           
         C         C         0.22311   0.59891   0.59602   -0.120484           
         N         N         0.11419   0.58053   0.45787   -0.275926           
         C         C         0.08926   0.56015   0.57047   0.076583  
         C         C         0.04225   0.53764   0.55020   -0.011637           
         C         C         0.01641   0.53982   0.41814   0.211617  
         C         C         0.97173   0.51272   0.40616   -0.272716           
         O         O         0.03739   0.56860   0.30944   -0.139466           
         C         C         0.32244   0.68766   0.48449   -0.179213           
         C         C         0.66531   0.79676   0.21383   -0.190879           
         C         C         0.97431   0.98555   0.77570   0.035425  
         C         C         0.92721   0.96906   0.77798   0.077825  
         C         C         0.90603   0.97709   0.64941   -0.136093           
         C         C         0.86166   0.96101   0.64253   -0.151802           
         C         C         0.83660   0.93662   0.76527   0.192846  
         C         C         0.85824   0.93010   0.89840   -0.173415           
         C         C         0.90236   0.94579   0.90335   -0.109236           
         N         N         0.79168   0.91937   0.73854   -0.288725           
         C         C         0.76672   0.89808   0.84955   0.081459  
         C         C         0.71972   0.87486   0.83308   -0.004936           
         C         C         0.69218   0.87342   0.69849   0.199030  
         C         C         0.64771   0.84622   0.69818   -0.271979           
         O         O         0.71105   0.89906   0.57620   -0.151210           
         C         C         0.00101   0.02744   0.75599   -0.181830           
         C         C         0.89799   0.19782   0.57916   -0.186613           
         C         C         0.71540   0.31961   0.07611   0.030119  
         C         C         0.73661   0.29553   0.06077   0.056026  
         C         C         0.71963   0.26166   0.94144   -0.126605           
         C         C         0.73876   0.23848   0.92681   -0.160890           
         C         C         0.77479   0.24759   0.03412   0.199729  
         C         C         0.79296   0.28255   0.14893   -0.181923           
         C         C         0.77412   0.30618   0.16133   -0.128289           
         N         N         0.78999   0.22085   0.01600   -0.281944           
         C         C         0.80725   0.21433   0.14466   0.082092  
         C         C         0.82422   0.18732   0.14295   -0.011441           
         C         C         0.81705   0.15820   0.00997   0.202512  
         C         C         0.83532   0.13424   0.02719   -0.276935           
         O         O         0.79145   0.15466   0.87327   -0.152858           
         C         C         0.67163   0.30050   0.11013   0.008448  
         C         C         0.55546   0.53416   0.92321   -0.190088           
         C         C         0.36014   0.64076   0.45850   0.029116  
         C         C         0.38216   0.61773   0.43274   0.063056  
         C         C         0.36733   0.58638   0.30299   -0.131091           
         C         C         0.38818   0.56499   0.27859   -0.163697           
         C         C         0.42414   0.57360   0.38538   0.196139  
         C         C         0.44040   0.60644   0.50970   -0.180451           
         C         C         0.41965   0.62807   0.53270   -0.130032           
         N         N         0.44159   0.54882   0.35915   -0.279770           
         C         C         0.45940   0.54243   0.48664   0.080291  
         C         C         0.47937   0.51796   0.48526   -0.008337           
         C         C         0.47597   0.49082   0.35086   0.203500  
         C         C         0.49563   0.46820   0.37283   -0.270732           
         O         O         0.45262   0.48774   0.20788   -0.154141           
         C         C         0.31537   0.62097   0.47604   0.010992  
         C         C         0.22700   0.86906   0.27589   -0.189882           
         C         C         0.03694   0.97888   0.76159   0.030192  
         C         C         0.05744   0.95410   0.74980   0.056314  
         C         C         0.03875   0.91841   0.63922   -0.130542           
         C         C         0.05779   0.89516   0.62396   -0.162968           
         C         C         0.09584   0.90611   0.72234   0.198275  
         C         C         0.11539   0.94251   0.82935   -0.184390           
         C         C         0.09648   0.96611   0.84226   -0.128035           
         N         N         0.11227   0.88030   0.70366   -0.278078           
         C         C         0.13108   0.87553   0.83247   0.079722  
         C         C         0.15078   0.85077   0.83509   -0.011389           
         C         C         0.14782   0.82335   0.70264   0.203257  
         C         C         0.16822   0.80145   0.72709   -0.274296           
         O         O         0.12431   0.81946   0.55866   -0.153540           
         C         C         0.99259   0.96086   0.78621   0.007568  
         C         C         0.76971   0.67073   0.31052   -0.193146           
         C         C         0.72043   0.38530   0.05972   0.067725  
         C         C         0.74686   0.42981   0.04163   0.054965  
         C         C         0.78739   0.44764   0.97523   -0.129495           
         C         C         0.81253   0.48966   0.96053   -0.159982           
         C         C         0.79843   0.51614   0.01093   0.209694  
         C         C         0.75689   0.49811   0.06887   -0.172476           
         C         C         0.73230   0.45627   0.08686   -0.133058           
         N         N         0.82619   0.55840   -0.00202  -0.280985           
         C         C         0.82130   0.58283   0.09800   0.103078  
         C         C         0.84293   0.62722   0.10461   -0.012596           
         C         C         0.88268   0.65509   0.04097   0.200732  
         C         C         0.89831   0.69696   0.06396   -0.259603           
         O         O         0.90455   0.63940   0.96585   -0.146922           
         C         C         0.73922   0.36138   0.05323   -0.182444           
         C         C         0.39956   0.99755   0.58486   -0.188930           
         C         C         0.36719   0.70793   0.47283   0.069445  
         C         C         0.39308   0.75274   0.46366   0.057371  
         C         C         0.43533   0.77281   0.41228   -0.125752           
         C         C         0.45811   0.81466   0.39351   -0.155993           
         C         C         0.43951   0.83853   0.42128   0.194643  
         C         C         0.39751   0.81862   0.47546   -0.180522           
         C         C         0.37548   0.77717   0.49956   -0.120485           
         N         N         0.46526   0.88051   0.40200   -0.279657           
         C         C         0.44796   0.90270   0.40526   0.100355  
         C         C         0.47112   0.94712   0.41616   0.009637  
         C         C         0.51538   0.97359   0.39018   0.216643  
         C         C         0.53312   0.01582   0.41169   -0.256819           
         O         O         0.53777   0.95582   0.34176   -0.136221           
         C         C         0.38537   0.68359   0.46042   -0.176708           
         C         C         0.10418   0.33737   0.96757   -0.207358           
         C         C         0.04569   0.04653   0.74318   0.077289  
         C         C         0.07319   0.09095   0.72326   0.054739  
         C         C         0.11695   0.10924   0.69063   -0.123977           
         C         C         0.14222   0.15061   0.66478   -0.164360           
         C         C         0.12522   0.17628   0.67010   0.207936  
         C         C         0.08095   0.15780   0.69442   -0.174427           
         C         C         0.05628   0.11670   0.72526   -0.118041           
         N         N         0.15332   0.21814   0.65044   -0.289840           
         C         C         0.14310   0.24319   0.71557   0.121286  
         C         C         0.16608   0.28761   0.71818   0.006606  
         C         C         0.20490   0.31367   0.64490   0.209647  
         C         C         0.22293   0.35608   0.66578   -0.254741           
         O         O         0.22220   0.29506   0.55827   -0.139694           
         C         C         0.06258   0.02097   0.74310   -0.182408           
         C         C         0.96844   0.91870   0.84739   -0.026064           
         O         O         0.92699   0.89120   0.75953   -0.245635           
         C         C         0.90171   0.85784   0.85926   0.163555  
         C         C         0.85371   0.83785   0.80590   -0.112369           
         N         N         0.84374   0.80286   0.68909   -0.182346           
         C         C         0.88009   0.79674   0.67710   -0.000726           
         C         C         0.90990   0.82269   0.83249   -0.267811           
         C         C         0.87046   0.75301   0.67785   0.514741  
         O         O         0.83290   0.72706   0.74168   -0.199463           
         C         C         0.82037   0.68417   0.72936   -0.183799           
         O         O         0.89623   0.74396   0.63269   -0.480038           
         C         C         0.80519   0.77929   0.59688   0.590777  
         O         O         0.77583   0.78882   0.65049   -0.341814           
         C         C         0.72943   0.75975   0.60018   0.454442  
         C         C         0.71553   0.71789   0.66302   -0.484853           
         C         C         0.70780   0.77947   0.68962   -0.474608           
         O         O         0.79809   0.75355   0.48347   -0.527689           
         C         C         0.72032   0.75713   0.41229   -0.487382           
         C         C         0.38311   0.75035   0.03350   -0.030105           
         O         O         0.37790   0.77498   0.91690   -0.262186           
         C         C         0.39897   0.81695   0.98708   0.183095  
         C         C         0.44858   0.84037   0.98291   -0.127162           
         N         N         0.45955   0.87592   0.88956   -0.171782           
         C         C         0.42290   0.87896   0.83294   -0.002476           
         C         C         0.38277   0.83956   0.88303   -0.247995           
         C         C         0.42399   0.91807   0.88908   0.504190  
         O         O         0.45554   0.94292   0.00677   -0.193906           
         C         C         0.46020   0.98298   0.03827   -0.192136           
         O         O         0.39775   0.92533   0.82490   -0.494208           
         C         C         0.49926   0.90168   0.83555   0.601460  
         O         O         0.52795   0.89114   0.89289   -0.333528           
         C         C         0.56922   0.90654   0.81661   0.454488  
         C         C         0.59673   0.95349   0.82771   -0.487664           
         C         C         0.59153   0.88995   0.92326   -0.470054           
         O         O         0.50731   0.93012   0.75005   -0.536650           
         C         C         0.55925   0.88826   0.63634   -0.484329           
         C         C         0.70624   0.40910   0.64345   -0.033798           
         O         O         0.69465   0.42903   0.52376   -0.247582           
         C         C         0.71773   0.47198   0.57044   0.166340  
         C         C         0.76470   0.49387   0.52548   -0.127243           
         N         N         0.77440   0.53557   0.50835   -0.194320           
         C         C         0.73608   0.53850   0.48388   -0.001597           
         C         C         0.69857   0.49307   0.47420   -0.251394           
         C         C         0.73141   0.56541   0.61656   0.500970  
         O         O         0.73668   0.55649   0.77287   -0.187868           
         C         C         0.72992   0.57951   0.90278   -0.184869           
         O         O         0.72134   0.59025   0.58359   -0.469675           
         C         C         0.81505   0.56909   0.50026   0.597301  
         O         O         0.84179   0.55561   0.45908   -0.328478           
         C         C         0.88932   0.57972   0.49761   0.459370  
         C         C         0.89746   0.57141   0.67404   -0.488497           
         C         C         0.90433   0.55981   0.37095   -0.473824           
         O         O         0.82352   0.60465   0.51711   -0.515304           
         C         C         0.91013   0.62544   0.47509   -0.483200           
         C         C         0.64933   0.25667   0.15127   -0.033893           
         O         O         0.62551   0.22954   0.00601   -0.245901           
         C         C         0.60186   0.18769   0.04390   0.172758  
         C         C         0.55439   0.17236   0.06870   -0.125910           
         N         N         0.53292   0.12848   0.01750   -0.187065           
         C         C         0.55744   0.11838   0.90768   -0.015492           
         C         C         0.59993   0.15984   0.89736   -0.257080           
         C         C         0.56583   0.08638   0.97316   0.509984  
         O         O         0.56463   0.06223   0.84204   -0.197988           
         C         C         0.57427   0.03107   0.87842   -0.186992           
         O         O         0.57447   0.08362   0.11776   -0.478505           
         C         C         0.48976   0.10033   0.02059   0.601966  
         O         O         0.47052   0.11691   0.10767   -0.324396           
         C         C         0.42319   0.09198   0.11976   0.459527  
         C         C         0.41056   0.05230   0.19971   -0.495023           
         C         C         0.41579   0.12034   0.23346   -0.475656           
         O         O         0.47204   0.06531   0.95174   -0.524203           
         C         C         0.40000   0.08460   0.94734   -0.488041           
         C         C         0.28837   0.57522   0.48459   -0.025058           
         O         O         0.25376   0.55847   0.35621   -0.248200           
         C         C         0.21958   0.51791   0.38019   0.172274  
         C         C         0.17779   0.51104   0.29187   -0.116124           
         N         N         0.15620   0.46911   0.21153   -0.195110           
         C         C         0.17933   0.44833   0.24943   -0.011953           
         C         C         0.22569   0.48431   0.29943   -0.262766           
         C         C         0.16210   0.42064   0.39137   0.500147  
         O         O         0.13436   0.42661   0.47644   -0.199506           
         C         C         0.11704   0.40172   0.61562   -0.186893           
         O         O         0.17357   0.39689   0.42539   -0.469199           
         C         C         0.11356   0.44664   0.15478   0.599439  
         O         O         0.09597   0.47044   0.16583   -0.327754           
         C         C         0.05085   0.45358   0.09583   0.453568  
         C         C         0.01909   0.41672   0.18635   -0.482688           
         C         C         0.04492   0.48966   0.13429   -0.472449           
         O         O         0.09446   0.41018   0.10092   -0.547058           
         C         C         0.04750   0.44297   0.90928   -0.489540           
         C         C         0.06009   0.08705   0.31542   -0.038885           
         O         O         0.06077   0.10891   0.17467   -0.252374           
         C         C         0.08265   0.15175   0.22802   0.170084  
         C         C         0.13218   0.17408   0.22307   -0.128685           
         N         N         0.14428   0.21526   0.17824   -0.170333           
         C         C         0.10642   0.21886   0.14272   -0.009641           
         C         C         0.06921   0.17403   0.11195   -0.261486           
         C         C         0.09935   0.24057   0.29031   0.505446  
         O         O         0.11105   0.27935   0.25940   -0.190905           
         C         C         0.10686   0.30353   0.39344   -0.196833           
         O         O         0.08437   0.22484   0.41747   -0.456207           
         C         C         0.18366   0.24357   0.12711   0.599026  
         O         O         0.21329   0.23280   0.16729   -0.336169           
         C         C         0.25175   0.24607   0.07261   0.452510  
         C         C         0.27749   0.29199   0.04743   -0.484546           
         C         C         0.27883   0.23479   0.18165   -0.469369           
         O         O         0.19077   0.27423   0.05920   -0.526758           
         C         C         0.23628   0.22045   0.90553   -0.481364           
         H         H         0.66370   0.86952   0.37397   0.104785  
         H         H         0.70454   0.92245   0.36624   0.127143  
         H         H         0.66126   0.90840   0.49704   0.099982  
         H         H         0.43387   0.66599   0.08259   0.110217  
         H         H         0.51377   0.70476   0.06789   0.121097  
         H         H         0.50386   0.78699   0.75105   0.105907  
         H         H         0.42497   0.74843   0.76400   0.109401  
         H         H         0.56600   0.79498   0.69195   0.062085  
         H         H         0.72167   0.85127   0.06474   0.114859  
         H         H         0.36987   0.62502   0.88805   0.102463  
         H         H         0.33475   0.19729   0.70948   0.106005  
         H         H         0.37493   0.25028   0.69974   0.127239  
         H         H         0.33379   0.23576   0.84137   0.100624  
         H         H         0.11009   0.00471   0.45406   0.108369  
         H         H         0.19027   0.04325   0.45245   0.120949  
         H         H         0.18315   0.11567   0.07677   0.106278  
         H         H         0.10383   0.07727   0.07640   0.114182  
         H         H         0.24365   0.12144   0.03979   0.061682  
         H         H         0.40165   0.18909   0.40923   0.118707  
         H         H         0.04648   0.95947   0.28291   0.105215  
         H         H         0.99447   0.54338   0.09482   0.095271  
         H         H         0.03527   0.59681   0.10835   0.127481  
         H         H         0.98898   0.57940   0.22552   0.102574  
         H         H         0.75508   0.32402   0.74499   0.103441  
         H         H         0.83479   0.36382   0.73471   0.122466  
         H         H         0.82305   0.43748   0.37496   0.111409  
         H         H         0.74427   0.39732   0.38244   0.109838  
         H         H         0.89038   0.46043   0.37138   0.063110  
         H         H         0.03948   0.50770   0.77164   0.123043  
         H         H         0.68673   0.27875   0.56916   0.109421  
         H         H         0.10148   0.75817   0.47529   0.105085  
         H         H         0.14868   0.79578   0.38351   0.106382  
         H         H         0.09761   0.79039   0.33090   0.125144  
         H         H         0.31755   0.73775   0.23842   0.093975  
         H         H         0.27953   0.77576   0.24137   0.117201  
         H         H         0.20733   0.70886   0.78096   0.111184  
         H         H         0.24576   0.67171   0.77591   0.101031  
         H         H         0.21216   0.76711   0.75992   0.062502  
         H         H         0.17610   0.87526   0.08540   0.119029  
         H         H         0.76489   0.09273   0.78864   0.104013  
         H         H         0.81116   0.12885   0.68804   0.102669  
         H         H         0.76072   0.12580   0.64965   0.124274  
         H         H         0.98507   0.06756   0.52848   0.089543  
         H         H         0.95042   0.10910   0.52013   0.120221  
         H         H         0.90591   0.06477   0.00794   0.109739  
         H         H         0.94080   0.02459   0.01702   0.100568  
         H         H         0.86702   0.08902   0.05740   0.060884  
         H         H         0.85319   0.21163   0.38980   0.119150  
         H         H         0.42699   0.42568   0.12989   0.107189  
         H         H         0.47361   0.46133   0.02955   0.105547  
         H         H         0.42309   0.45765   0.98415   0.125771  
         H         H         0.64900   0.40626   0.85368   0.095011  
         H         H         0.61219   0.44518   0.86207   0.118200  
         H         H         0.52965   0.37158   0.42908   0.111936  
         H         H         0.56649   0.33277   0.41927   0.104438  
         H         H         0.53756   0.43200   0.40113   0.062800  
         H         H         0.50500   0.54170   0.73586   0.119720  
         H         H         0.25254   0.33628   0.37864   0.116415  
         H         H         0.26796   0.29975   0.41509   0.115372  
         H         H         0.28676   0.34354   0.56184   0.094174  
         H         H         0.22006   0.56148   0.93035   0.106963  
         H         H         0.18143   0.48627   0.88336   0.121268  
         H         H         0.30232   0.49240   0.86331   0.111833  
         H         H         0.34101   0.56696   0.90555   0.105628  
         H         H         0.25555   0.43381   0.69935   0.062485  
         H         H         0.11799   0.28562   0.86437   0.111408  
         H         H         0.25315   0.62309   0.97739   0.106600  
         H         H         0.94120   0.68672   0.81467   0.116094  
         H         H         0.95727   0.65063   0.84989   0.114083  
         H         H         0.96828   0.68951   0.01112   0.100593  
         H         H         0.90026   0.90259   0.36411   0.112146  
         H         H         0.85872   0.82631   0.33644   0.127167  
         H         H         0.97282   0.82768   0.21203   0.113038  
         H         H         0.01252   0.90211   0.21913   0.107381  
         H         H         0.92605   0.77250   0.09013   0.055484  
         H         H         0.79143   0.62180   0.23973   0.108264  
         H         H         0.92936   0.96176   0.28029   0.105926  
         H         H         0.58529   0.00323   0.21583   0.101405  
         H         H         0.59321   0.96257   0.26892   0.117902  
         H         H         0.60152   0.00124   0.42634   0.098189  
         H         H         0.54519   0.22597   0.70050   0.111731  
         H         H         0.49786   0.15044   0.64289   0.123173  
         H         H         0.59743   0.14754   0.38993   0.116762  
         H         H         0.64488   0.22183   0.44994   0.099702  
         H         H         0.56779   0.09192   0.48410   0.063376  
         H         H         0.41380   0.94390   0.48904   0.117950  
         H         H         0.57338   0.28566   0.61650   0.106350  
         H         H         0.36789   0.16357   0.63702   0.104628  
         H         H         0.36997   0.12465   0.51274   0.106162  
         H         H         0.32818   0.11061   0.65059   0.126591  
         H         H         0.60138   0.33981   0.91662   0.089243  
         H         H         0.52269   0.30862   0.89489   0.121518  
         H         H         0.51340   0.23163   0.28109   0.109007  
         H         H         0.59104   0.26457   0.30988   0.093426  
         H         H         0.45848   0.23717   0.30764   0.061540  
         H         H         0.30105   0.17054   0.93648   0.116974  
         H         H         0.66032   0.38269   0.08762   0.105501  
         H         H         0.95595   0.49080   0.96425   0.075367  
         H         H         0.92885   0.43672   0.98416   0.118290  
         H         H         0.90603   0.45579   0.84006   0.097200  
         H         H         0.24800   0.66333   0.28998   0.099978  
         H         H         0.16919   0.63536   0.28355   0.121158  
         H         H         0.16002   0.55990   0.67547   0.106396  
         H         H         0.23766   0.58809   0.68333   0.091052  
         H         H         0.10214   0.55663   0.69026   0.060819  
         H         H         0.95201   0.51365   0.30369   0.111843  
         H         H         0.30666   0.70506   0.49217   0.102980  
         H         H         0.68635   0.82638   0.28723   0.100016  
         H         H         0.68530   0.78641   0.15778   0.106911  
         H         H         0.64392   0.77414   0.29577   0.125402  
         H         H         0.92445   0.99521   0.55119   0.099696  
         H         H         0.84523   0.96632   0.54020   0.120456  
         H         H         0.84054   0.91174   -0.00271  0.107931  
         H         H         0.91802   0.93999   0.00662   0.097708  
         H         H         0.77980   0.89443   0.96846   0.058196  
         H         H         0.62624   0.84424   0.59537   0.117479  
         H         H         0.98574   0.04535   0.75451   0.101185  
         H         H         0.91524   0.22939   0.54194   0.107253  
         H         H         0.91785   0.19478   0.67629   0.127118  
         H         H         0.86735   0.19098   0.62745   0.101163  
         H         H         0.69079   0.25342   0.86243   0.112492  
         H         H         0.72586   0.21227   0.83505   0.120182  
         H         H         0.82193   0.29120   0.22807   0.113345  
         H         H         0.78780   0.33260   0.25282   0.105975  
         H         H         0.80987   0.22914   0.26859   0.064554  
         H         H         0.83018   0.11193   0.92652   0.118361  
         H         H         0.57266   0.56428   0.87241   0.107436  
         H         H         0.57627   0.53285   0.02163   0.125005  
         H         H         0.52605   0.52965   0.97539   0.107270  
         H         H         0.33924   0.57904   0.22074   0.110467  
         H         H         0.37658   0.54057   0.17920   0.119440  
         H         H         0.46954   0.61522   0.58780   0.110620  
         H         H         0.43227   0.65307   0.63049   0.107091  
         H         H         0.46001   0.55547   0.61191   0.060236  
         H         H         0.49337   0.44732   0.27154   0.117674  
         H         H         0.24274   0.89885   0.22231   0.106540  
         H         H         0.24906   0.86911   0.37277   0.126414  
         H         H         0.19760   0.86376   0.33082   0.106714  
         H         H         0.00902   0.90917   0.56397   0.109196  
         H         H         0.04322   0.86766   0.53832   0.122195  
         H         H         0.14574   0.95249   0.90125   0.111202  
         H         H         0.11172   0.99387   0.92708   0.107379  
         H         H         0.13294   0.89040   0.95533   0.063175  
         H         H         0.16649   0.78060   0.62682   0.120616  
         H         H         0.76857   0.65077   0.40561   0.108092  
         H         H         0.75043   0.65179   0.19677   0.093344  
         H         H         0.75742   0.68961   0.35734   0.132917  
         H         H         0.79919   0.42829   0.93099   0.105509  
         H         H         0.84393   0.50304   0.91085   0.116319  
         H         H         0.74376   0.51709   0.10107   0.099395  
         H         H         0.70116   0.44377   0.13796   0.105308  
         H         H         0.79759   0.57015   0.19106   0.048507  
         H         H         0.92862   0.71890   0.01619   0.116097  
         H         H         0.77306   0.37512   0.03193   0.104204  
         H         H         0.39868   0.97839   0.68318   0.124483  
         H         H         0.37830   0.97807   0.47539   0.097004  
         H         H         0.38894   0.01803   0.62965   0.116543  
         H         H         0.45032   0.75533   0.38268   0.109546  
         H         H         0.49070   0.82994   0.35399   0.122916  
         H         H         0.38210   0.83580   0.50292   0.106832  
         H         H         0.34405   0.76353   0.54874   0.111164  
         H         H         0.41284   0.88878   0.40864   0.056013  
         H         H         0.56645   0.03683   0.38726   0.118586  
         H         H         0.41973   0.69757   0.44844   0.104017  
         H         H         0.10374   0.31538   0.05051   0.103695  
         H         H         0.08238   0.32063   0.85540   0.096931  
         H         H         0.09473   0.35713   0.02972   0.141846  
         H         H         0.13153   0.09073   0.68147   0.102896  
         H         H         0.17582   0.16400   0.63935   0.123044  
         H         H         0.06572   0.17574   0.68722   0.121681  
         H         H         0.02285   0.10452   0.75047   0.107858  
         H         H         0.11409   0.23120   0.78405   0.050653  
         H         H         0.25211   0.37637   0.60723   0.113913  
         H         H         0.09645   0.03339   0.72551   0.101079  
         H         H         0.98851   0.90509   0.84688   0.065210  
         H         H         0.96381   0.92291   0.97900   0.052956  
         H         H         0.90862   0.86974   0.99058   0.030745  
         H         H         0.84734   0.85945   0.74647   0.102165  
         H         H         0.83440   0.82734   0.91315   0.093550  
         H         H         0.89639   0.80838   0.56382   0.081596  
         H         H         0.89967   0.80438   0.93989   0.099047  
         H         H         0.94383   0.83328   0.81855   0.124735  
         H         H         0.83555   0.67826   0.83535   0.094652  
         H         H         0.83008   0.67625   0.61444   0.127721  
         H         H         0.78519   0.66661   0.73075   0.113731  
         H         H         0.72308   0.72112   0.79774   0.139672  
         H         H         0.73200   0.70415   0.60342   0.145644  
         H         H         0.68053   0.69703   0.63597   0.132869  
         H         H         0.67258   0.76043   0.66351   0.131426  
         H         H         0.71886   0.81006   0.64893   0.130284  
         H         H         0.71530   0.78274   0.82428   0.132212  
         H         H         0.73546   0.74297   0.34613   0.148579  
         H         H         0.73306   0.78808   0.37237   0.132392  
         H         H         0.68529   0.73900   0.37993   0.126224  
         H         H         0.37448   0.75656   0.15506   0.051125  
         H         H         0.41723   0.75980   0.05181   0.063010  
         H         H         0.39066   0.81668   0.11627   0.035165  
         H         H         0.45812   0.82068   0.91975   0.096327  
         H         H         0.46553   0.85070   0.10742   0.088203  
         H         H         0.42180   0.87956   0.69754   0.070023  
         H         H         0.36155   0.84648   0.94993   0.115742  
         H         H         0.36370   0.81909   0.77280   0.118909  
         H         H         0.43137   0.97941   0.09052   0.109718  
         H         H         0.46513   0.99803   0.92309   0.128627  
         H         H         0.48845   0.00051   0.12733   0.108649  
         H         H         0.62935   0.96290   0.79441   0.129918  
         H         H         0.59947   0.96649   0.95466   0.128518  
         H         H         0.58259   0.96560   0.74342   0.142791  
         H         H         0.62241   0.89773   0.87569   0.128482  
         H         H         0.57136   0.85646   0.92329   0.134516  
         H         H         0.59783   0.90329   0.05207   0.133311  
         H         H         0.54014   0.85460   0.63040   0.124116  
         H         H         0.58952   0.89762   0.57938   0.124008  
         H         H         0.54111   0.89876   0.56375   0.149286  
         H         H         0.70280   0.41896   0.76852   0.051139  
         H         H         0.74043   0.41926   0.64179   0.066819  
         H         H         0.71721   0.47769   0.70495   0.041947  
         H         H         0.76652   0.47926   0.40829   0.085313  
         H         H         0.78698   0.49414   0.62202   0.094815  
         H         H         0.73656   0.55260   0.36823   0.067992  
         H         H         0.66920   0.48897   0.52382   0.120625  
         H         H         0.69050   0.48001   0.34453   0.116304  
         H         H         0.72876   0.56463   0.01608   0.105284  
         H         H         0.69957   0.57836   0.87421   0.116792  
         H         H         0.75700   0.61150   0.91685   0.113353  
         H         H         0.93235   0.58663   0.70782   0.130374  
         H         H         0.88322   0.53829   0.68097   0.129617  
         H         H         0.88335   0.58226   0.76484   0.139485  
         H         H         0.88705   0.52649   0.37919   0.125235  
         H         H         0.93899   0.57222   0.39800   0.123725  
         H         H         0.89849   0.56576   0.24417   0.141759  
         H         H         0.90104   0.63006   0.35074   0.137417  
         H         H         0.94538   0.63969   0.48891   0.128263  
         H         H         0.90074   0.64080   0.56589   0.152548  
         H         H         0.67382   0.25019   0.19870   0.059957  
         H         H         0.62780   0.25114   0.24946   0.057822  
         H         H         0.61726   0.18384   0.15578   0.041329  
         H         H         0.54332   0.18800   0.98845   0.088733  
         H         H         0.54889   0.17726   0.19708   0.091384  
         H         H         0.53938   0.10560   0.78613   0.079770  
         H         H         0.62850   0.15719   0.90088   0.112065  
         H         H         0.59850   0.17308   0.78218   0.105337  
         H         H         0.54504   0.00318   0.90953   0.133674  
         H         H         0.59977   0.04261   0.98004   0.100521  
         H         H         0.58470   0.02427   0.76335   0.113919  
         H         H         0.43168   0.05905   0.31320   0.141840  
         H         H         0.41312   0.03069   0.11477   0.143592  
         H         H         0.37708   0.03791   0.23273   0.128489  
         H         H         0.43310   0.12620   0.35605   0.135832  
         H         H         0.38114   0.10612   0.24760   0.130435  
         H         H         0.42716   0.14971   0.18021   0.129543  
         H         H         0.41044   0.11400   0.89528   0.134067  
         H         H         0.36498   0.06878   0.95674   0.134965  
         H         H         0.40678   0.06572   0.86328   0.140380  
         H         H         0.30796   0.56124   0.47264   0.069409  
         H         H         0.27516   0.56811   0.60649   0.051153  
         H         H         0.21620   0.51470   0.51417   0.035130  
         H         H         0.18604   0.53357   0.19985   0.096680  
         H         H         0.15736   0.51450   0.37795   0.089569  
         H         H         0.17784   0.42921   0.14052   0.102752  
         H         H         0.24375   0.47539   0.38080   0.116227  
         H         H         0.24284   0.49561   0.18789   0.114905  
         H         H         0.10184   0.36910   0.57418   0.109316  
         H         H         0.09296   0.40817   0.65854   0.118650  
         H         H         0.14267   0.41029   0.71436   0.111414  
         H         H         0.02374   0.42506   0.32051   0.140356  
         H         H         0.02331   0.39073   0.16222   0.145482  
         H         H         0.98590   0.40744   0.14365   0.135457  
         H         H         0.01283   0.48189   0.08385   0.124999  
         H         H         0.06956   0.51736   0.08136   0.135215  
         H         H         0.04781   0.49678   0.26877   0.131011  
         H         H         0.05112   0.41663   0.88404   0.140667  
         H         H         0.07285   0.46921   0.85093   0.127362  
         H         H         0.01599   0.43579   0.85377   0.143025  
         H         H         0.04676   0.09602   0.41626   0.053806  
         H         H         0.09313   0.09654   0.36061   0.063763  
         H         H         0.07496   0.15572   0.35467   0.043123  
         H         H         0.14000   0.15842   0.12656   0.092512  
         H         H         0.14898   0.17596   0.34202   0.093030  
         H         H         0.11189   0.23687   0.03583   0.074427  
         H         H         0.03763   0.16938   0.13547   0.120716  
         H         H         0.06824   0.16281   0.98362   0.104701  
         H         H         0.08093   0.28332   0.46837   0.107772  
         H         H         0.10005   0.32471   0.33339   0.116613  
         H         H         0.13764   0.32108   0.46966   0.118860  
         H         H         0.30742   0.29881   0.99327   0.126369  
         H         H         0.28644   0.31093   0.16530   0.128010  
         H         H         0.25934   0.30043   0.96443   0.154552  
         H         H         0.30788   0.24112   0.12184   0.124698  
         H         H         0.26038   0.20209   0.20268   0.135414  
         H         H         0.28905   0.25267   0.30283   0.133563  
         H         H         0.21756   0.18760   0.92381   0.124934  
         H         H         0.26410   0.22654   0.83689   0.126082  
         H         H         0.21617   0.22802   0.82856   0.144883 

