
##########################################################################
#               Crystallographic Information Format file
#               Produced by PyCifRW module
#
#  This is a CIF file.  CIF has been adopted by the International
#  Union of Crystallography as the standard for data archiving and
#  transmission.
#
#  For information on this file format, follow the CIF links at
#  http://www.iucr.org
##########################################################################

data_image0

_cell_length_a                          28.421
_cell_length_b                          28.2516
_cell_length_c                          28.4831
_cell_angle_alpha                       89.9161
_cell_angle_beta                        90.0782
_cell_angle_gamma                       90.1925
_symmetry_space_group_name_H-M          'P 1'
_space_group_name_Hall                  'P 1'
loop_
  _atom_site_type_symbol
  _atom_site_label
  _atom_site_fract_x
  _atom_site_fract_y
  _atom_site_fract_z
  _atom_site_charge
         C         C         0.33952   0.08063   0.19852   -0.084595           
         C         C         0.33714   0.05280   0.23943   -0.205711           
         C         C         0.30265   0.06372   0.27325   -0.084759           
         C         C         0.27201   0.10159   0.26663   -0.056346           
         C         C         0.27458   0.12965   0.22580   -0.247549           
         C         C         0.30878   0.11853   0.19190   -0.052103           
         H         H         0.36541   0.07226   0.17166   0.099793  
         H         H         0.29944   0.04209   0.30480   0.103038  
         H         H         0.24543   0.10971   0.29287   0.104839  
         H         H         0.31075   0.13966   0.15999   0.103362  
         B         B         0.24009   0.17118   0.21785   0.718395  
         O         O         0.20393   0.17960   0.24971   -0.569378           
         C         C         0.84612   0.58584   0.70291   -0.085441           
         C         C         0.83951   0.55314   0.73963   -0.204516           
         C         C         0.80165   0.56026   0.77075   -0.087625           
         C         C         0.77172   0.59892   0.76558   -0.053074           
         C         C         0.77818   0.63158   0.72870   -0.252755           
         C         C         0.81585   0.62428   0.69753   -0.046434           
         H         H         0.87470   0.58076   0.67804   0.097249  
         H         H         0.79539   0.53486   0.79890   0.101862  
         H         H         0.74266   0.60387   0.78990   0.106190  
         H         H         0.82109   0.64916   0.66878   0.101582  
         B         B         0.74396   0.67358   0.72162   0.719520  
         O         O         0.70663   0.68056   0.75245   -0.568788           
         C         C         0.15618   0.92063   0.70096   -0.084673           
         C         C         0.16272   0.95130   0.73931   -0.204576           
         C         C         0.20065   0.94244   0.77003   -0.083573           
         C         C         0.23072   0.90425   0.76283   -0.055217           
         C         C         0.22402   0.87351   0.72446   -0.247524           
         C         C         0.18629   0.88241   0.69370   -0.051041           
         H         H         0.12736   0.92672   0.67653   0.097693  
         H         H         0.20684   0.96596   0.79966   0.101812  
         H         H         0.25975   0.89788   0.78698   0.104113  
         H         H         0.18090   0.85898   0.66384   0.103608  
         B         B         0.25737   0.83109   0.71618   0.718941  
         O         O         0.29538   0.82355   0.74615   -0.569309           
         C         C         0.65529   0.41515   0.20351   -0.084743           
         C         C         0.66468   0.44765   0.23979   -0.204105           
         C         C         0.70450   0.43994   0.26839   -0.088166           
         C         C         0.73369   0.40107   0.26097   -0.056367           
         C         C         0.72441   0.36867   0.22452   -0.247065           
         C         C         0.68475   0.37646   0.19591   -0.052748           
         H         H         0.62499   0.42065   0.18072   0.098364  
         H         H         0.71300   0.46499   0.29621   0.102848  
         H         H         0.76438   0.39562   0.28324   0.106867  
         H         H         0.67725   0.35190   0.16742   0.104034  
         B         B         0.75769   0.32624   0.21592   0.718370  
         O         O         0.79598   0.31912   0.24555   -0.569409           
         C         C         0.65791   0.58492   0.29810   -0.085106           
         C         C         0.66572   0.55281   0.26124   -0.205019           
         C         C         0.70434   0.56079   0.23121   -0.083790           
         C         C         0.73408   0.59954   0.23786   -0.056403           
         C         C         0.72645   0.63150   0.27495   -0.246940           
         C         C         0.68777   0.62365   0.30480   -0.051176           
         H         H         0.62849   0.57923   0.32190   0.099814  
         H         H         0.71138   0.53610   0.20276   0.101726  
         H         H         0.76388   0.60527   0.21454   0.104075  
         H         H         0.68152   0.64806   0.33365   0.103835  
         B         B         0.76051   0.67353   0.28312   0.718864  
         O         O         0.79987   0.67957   0.25468   -0.568602           
         C         C         0.15927   0.08452   0.80216   -0.086173           
         C         C         0.16223   0.05608   0.76173   -0.204538           
         C         C         0.19775   0.06662   0.72874   -0.086130           
         C         C         0.22913   0.10398   0.73589   -0.055863           
         C         C         0.22652   0.13213   0.77659   -0.248084           
         C         C         0.19075   0.12196   0.80935   -0.050192           
         H         H         0.13237   0.07702   0.82835   0.099972  
         H         H         0.20119   0.04484   0.69743   0.103333  
         H         H         0.25641   0.11147   0.71008   0.104147  
         H         H         0.18820   0.14336   0.84102   0.103097  
         B         B         0.26226   0.17290   0.78524   0.721450  
         O         O         0.29979   0.18070   0.75474   -0.570361           
         C         C         0.84136   0.42087   0.80160   -0.086882           
         C         C         0.83863   0.44869   0.76067   -0.204099           
         C         C         0.80318   0.43802   0.72761   -0.087419           
         C         C         0.77174   0.40080   0.73508   -0.053370           
         C         C         0.77452   0.37280   0.77601   -0.249203           
         C         C         0.80982   0.38357   0.80910   -0.051155           
         H         H         0.86814   0.42877   0.82786   0.100664  
         H         H         0.79997   0.45946   0.69594   0.103250  
         H         H         0.74446   0.39318   0.70928   0.103799  
         H         H         0.81212   0.36258   0.84111   0.103925  
         B         B         0.73982   0.33104   0.78379   0.719648  
         O         O         0.70272   0.32366   0.75257   -0.568221           
         C         C         0.34535   0.91651   0.29829   -0.086579           
         C         C         0.33816   0.94832   0.26090   -0.201978           
         C         C         0.29951   0.94036   0.23080   -0.085881           
         C         C         0.26976   0.90157   0.23730   -0.056648           
         C         C         0.27705   0.86964   0.27462   -0.251314           
         C         C         0.31518   0.87798   0.30517   -0.048255           
         H         H         0.37442   0.92243   0.32253   0.097759  
         H         H         0.29227   0.96523   0.20246   0.101429  
         H         H         0.24019   0.89573   0.21366   0.106813  
         H         H         0.32100   0.85393   0.33451   0.102885  
         B         B         0.24300   0.82733   0.28205   0.719727  
         O         O         0.20688   0.81884   0.24997   -0.569044           
         C         C         0.20373   0.34441   0.08642   -0.083657           
         C         C         0.23964   0.33530   0.05372   -0.207085           
         C         C         0.26752   0.29460   0.05997   -0.083840           
         C         C         0.25991   0.26427   0.09787   -0.057054           
         C         C         0.22400   0.27329   0.13066   -0.248397           
         C         C         0.19594   0.31377   0.12414   -0.052268           
         H         H         0.18144   0.37542   0.08202   0.098434  
         H         H         0.29502   0.28657   0.03460   0.102116  
         H         H         0.28163   0.23292   0.10225   0.106918  
         H         H         0.16778   0.32088   0.14897   0.103776  
         B         B         0.21602   0.23929   0.17266   0.718345  
         O         O         0.24503   0.20012   0.17860   -0.568104           
         C         C         0.69826   0.83911   0.58384   -0.084597           
         C         C         0.73724   0.83353   0.55396   -0.205895           
         C         C         0.76990   0.79748   0.56425   -0.084224           
         C         C         0.76395   0.76838   0.60335   -0.053732           
         C         C         0.72514   0.77423   0.63348   -0.249163           
         C         C         0.69234   0.80991   0.62297   -0.050423           
         H         H         0.67244   0.86645   0.57623   0.097579  
         H         H         0.79997   0.79204   0.54121   0.102144  
         H         H         0.78935   0.74068   0.61105   0.104113  
         H         H         0.66195   0.81443   0.64574   0.103539  
         B         B         0.71845   0.74112   0.67627   0.719562  
         O         O         0.74991   0.70425   0.68376   -0.568855           
         C         C         0.70431   0.15432   0.91172   -0.086952           
         C         C         0.73911   0.16395   0.94568   -0.200768           
         C         C         0.76678   0.20512   0.94011   -0.087817           
         C         C         0.75992   0.23541   0.90200   -0.058152           
         C         C         0.72487   0.22599   0.86822   -0.248232           
         C         C         0.69726   0.18487   0.87375   -0.049767           
         H         H         0.68212   0.12304   0.91550   0.100046  
         H         H         0.79340   0.21393   0.96627   0.102558  
         H         H         0.78150   0.26708   0.89813   0.107086  
         H         H         0.66999   0.17710   0.84797   0.102968  
         B         B         0.71683   0.26067   0.82673   0.718999  
         O         O         0.74566   0.30025   0.82152   -0.569674           
         C         C         0.20044   0.65802   0.41730   -0.085386           
         C         C         0.23873   0.66475   0.44795   -0.204935           
         C         C         0.26971   0.70283   0.43911   -0.086358           
         C         C         0.26270   0.73290   0.40091   -0.051583           
         C         C         0.22423   0.72631   0.37026   -0.252327           
         C         C         0.19329   0.68831   0.37916   -0.049804           
         H         H         0.17592   0.62903   0.42367   0.097296  
         H         H         0.29926   0.70916   0.46274   0.102908  
         H         H         0.28678   0.76229   0.39467   0.103660  
         H         H         0.16315   0.68290   0.35610   0.103477  
         B         B         0.21660   0.76044   0.32826   0.721004  
         O         O         0.24792   0.79768   0.32081   -0.569305           
         C         C         0.30038   0.66294   0.58065   -0.084770           
         C         C         0.26024   0.66589   0.55183   -0.204754           
         C         C         0.22643   0.70082   0.56209   -0.085062           
         C         C         0.23227   0.73126   0.60017   -0.056720           
         C         C         0.27221   0.72798   0.62938   -0.247313           
         C         C         0.30616   0.69339   0.61882   -0.052024           
         H         H         0.32727   0.63671   0.57292   0.098892  
         H         H         0.19549   0.70444   0.53973   0.103087  
         H         H         0.20589   0.75807   0.60767   0.104271  
         H         H         0.33754   0.69086   0.64066   0.103216  
         B         B         0.27959   0.76195   0.67152   0.721804  
         O         O         0.24976   0.80019   0.67878   -0.569492           
         C         C         0.79507   0.15464   0.08330   -0.084876           
         C         C         0.75914   0.16336   0.05038   -0.205092           
         C         C         0.72938   0.20248   0.05788   -0.085262           
         C         C         0.73527   0.23164   0.09694   -0.057752           
         C         C         0.77151   0.22313   0.12965   -0.248693           
         C         C         0.80118   0.18407   0.12219   -0.051051           
         H         H         0.81872   0.12488   0.07812   0.098978  
         H         H         0.70181   0.21043   0.03248   0.101689  
         H         H         0.71195   0.26164   0.10229   0.106985  
         H         H         0.82937   0.17719   0.14716   0.104118  
         B         B         0.77963   0.25690   0.17169   0.720758  
         O         O         0.74990   0.29528   0.17872   -0.568525           
         C         C         0.80145   0.83895   0.42255   -0.085934           
         C         C         0.76009   0.83487   0.44941   -0.204168           
         C         C         0.72633   0.80080   0.43587   -0.083913           
         C         C         0.73368   0.77208   0.39683   -0.055775           
         C         C         0.77504   0.77618   0.36980   -0.248669           
         C         C         0.80872   0.81023   0.38336   -0.052143           
         H         H         0.82818   0.86477   0.43259   0.098730  
         H         H         0.69415   0.79665   0.45632   0.102595  
         H         H         0.70732   0.74590   0.38690   0.103991  
         H         H         0.84101   0.81379   0.36311   0.104291  
         B         B         0.78318   0.74306   0.32724   0.720302  
         O         O         0.75232   0.70553   0.31919   -0.568964           
         C         C         0.30526   0.33914   0.92339   -0.085681           
         C         C         0.26428   0.33523   0.95079   -0.203240           
         C         C         0.23131   0.29966   0.93926   -0.086665           
         C         C         0.23872   0.26960   0.90126   -0.054946           
         C         C         0.27960   0.27373   0.87356   -0.246671           
         C         C         0.31270   0.30894   0.88537   -0.051847           
         H         H         0.33157   0.36583   0.93213   0.098933  
         H         H         0.19983   0.29525   0.96067   0.102525  
         H         H         0.21274   0.24253   0.89269   0.104362  
         H         H         0.34463   0.31235   0.86454   0.103853  
         B         B         0.28782   0.24010   0.83145   0.718597  
         O         O         0.25704   0.20244   0.82387   -0.570310           
         C         C         0.08079   0.19832   0.34082   -0.082669           
         C         C         0.05137   0.23795   0.33563   -0.205027           
         C         C         0.06188   0.27050   0.29953   -0.085399           
         C         C         0.10044   0.26394   0.27007   -0.053289           
         C         C         0.13010   0.22437   0.27549   -0.249366           
         C         C         0.11947   0.19169   0.31136   -0.051624           
         H         H         0.07331   0.17247   0.36818   0.095852  
         H         H         0.03930   0.30116   0.29451   0.101799  
         H         H         0.10778   0.28961   0.24244   0.103919  
         H         H         0.14168   0.16066   0.31587   0.104427  
         B         B         0.17279   0.21691   0.24246   0.721531  
         O         O         0.18038   0.24767   0.20494   -0.569845           
         C         C         0.58176   0.69938   0.84296   -0.082939           
         C         C         0.55092   0.73743   0.83484   -0.205883           
         C         C         0.56086   0.76834   0.79722   -0.085564           
         C         C         0.60034   0.76166   0.76906   -0.054180           
         C         C         0.63126   0.72360   0.77719   -0.250099           
         C         C         0.62118   0.69249   0.81455   -0.051216           
         H         H         0.57456   0.67477   0.87155   0.098575  
         H         H         0.53710   0.79757   0.78967   0.101336  
         H         H         0.60761   0.78588   0.74018   0.104097  
         H         H         0.64443   0.66260   0.82105   0.104013  
         B         B         0.67452   0.71687   0.74484   0.720666  
         O         O         0.68106   0.74752   0.70704   -0.569830           
         C         C         0.91992   0.69805   0.16134   -0.086362           
         C         C         0.95028   0.73725   0.16576   -0.201541           
         C         C         0.94156   0.76974   0.20228   -0.088615           
         C         C         0.90350   0.76371   0.23261   -0.057346           
         C         C         0.87272   0.72479   0.22783   -0.246960           
         C         C         0.88190   0.69196   0.19183   -0.051052           
         H         H         0.92631   0.67198   0.13397   0.098652  
         H         H         0.96518   0.79981   0.20715   0.103458  
         H         H         0.89724   0.78929   0.26044   0.106781  
         H         H         0.85878   0.66143   0.18789   0.103408  
         B         B         0.83002   0.71799   0.26112   0.716055  
         O         O         0.82144   0.74986   0.29743   -0.567179           
         C         C         0.41896   0.20152   0.65998   -0.085352           
         C         C         0.44946   0.24049   0.66533   -0.203525           
         C         C         0.44132   0.27179   0.70300   -0.088114           
         C         C         0.40382   0.26459   0.73376   -0.054062           
         C         C         0.37314   0.22570   0.72822   -0.249585           
         C         C         0.38146   0.19432   0.69082   -0.050561           
         H         H         0.42492   0.17644   0.63166   0.097632  
         H         H         0.46497   0.30169   0.70862   0.102305  
         H         H         0.39788   0.28920   0.76252   0.106145  
         H         H         0.35819   0.16399   0.68622   0.103273  
         B         B         0.33152   0.21758   0.76245   0.720418  
         O         O         0.32541   0.24738   0.80087   -0.568166           
         C         C         0.58386   0.30117   0.65632   -0.085551           
         C         C         0.55343   0.26235   0.66282   -0.204907           
         C         C         0.56267   0.23093   0.70015   -0.085815           
         C         C         0.60107   0.23796   0.72978   -0.057259           
         C         C         0.63143   0.27697   0.72352   -0.249085           
         C         C         0.62216   0.30848   0.68628   -0.051077           
         H         H         0.57697   0.32611   0.62798   0.099748  
         H         H         0.53900   0.20118   0.70635   0.102839  
         H         H         0.60777   0.21349   0.75855   0.107201  
         H         H         0.64504   0.33905   0.68115   0.103839  
         B         B         0.67306   0.28473   0.75787   0.718256  
         O         O         0.68086   0.25278   0.79446   -0.568528           
         C         C         0.08917   0.79328   0.15222   -0.083154           
         C         C         0.05446   0.75937   0.16315   -0.205112           
         C         C         0.05998   0.73242   0.20448   -0.086779           
         C         C         0.09851   0.73951   0.23400   -0.052771           
         C         C         0.13290   0.77397   0.22350   -0.250824           
         C         C         0.12771   0.80042   0.18188   -0.052069           
         H         H         0.08558   0.81469   0.12060   0.098025  
         H         H         0.03339   0.70623   0.21390   0.102189  
         H         H         0.10207   0.71863   0.26594   0.104534  
         H         H         0.15411   0.82700   0.17308   0.103478  
         B         B         0.17435   0.78275   0.25791   0.720097  
         O         O         0.17881   0.75439   0.29770   -0.569702           
         C         C         0.41827   0.80104   0.83755   -0.084780           
         C         C         0.44625   0.76033   0.83267   -0.205702           
         C         C         0.43466   0.72799   0.79674   -0.085401           
         C         C         0.39622   0.73590   0.76726   -0.055992           
         C         C         0.36792   0.77648   0.77245   -0.246252           
         C         C         0.37984   0.80892   0.80801   -0.051484           
         H         H         0.42682   0.82680   0.86465   0.099333  
         H         H         0.45611   0.69650   0.79176   0.102870  
         H         H         0.38777   0.71057   0.73971   0.103873  
         H         H         0.35860   0.84062   0.81222   0.103454  
         B         B         0.32529   0.78520   0.73949   0.720635  
         O         O         0.31684   0.75445   0.70232   -0.571448           
         C         C         0.91782   0.29963   0.33777   -0.085245           
         C         C         0.94651   0.25931   0.33380   -0.203771           
         C         C         0.93578   0.22626   0.29823   -0.084598           
         C         C         0.89745   0.23297   0.26832   -0.055109           
         C         C         0.86849   0.27316   0.27247   -0.248488           
         C         C         0.87951   0.30635   0.30772   -0.050638           
         H         H         0.92580   0.32603   0.36448   0.096874  
         H         H         0.95803   0.19524   0.29374   0.102950  
         H         H         0.88963   0.20697   0.24120   0.103668  
         H         H         0.85777   0.33781   0.31123   0.103051  
         B         B         0.82586   0.28075   0.23915   0.721041  
         O         O         0.81702   0.24952   0.20242   -0.570030           
         C         C         0.33266   0.59341   0.45033   -0.084645           
         C         C         0.30315   0.58774   0.48958   -0.206745           
         C         C         0.31334   0.55112   0.52167   -0.085633           
         C         C         0.35164   0.52126   0.51473   -0.052440           
         C         C         0.38103   0.52670   0.47526   -0.250130           
         C         C         0.37096   0.56341   0.44335   -0.051131           
         H         H         0.32535   0.62132   0.42499   0.098429  
         H         H         0.29066   0.54578   0.55204   0.102789  
         H         H         0.35888   0.49302   0.53976   0.103999  
         H         H         0.39321   0.56791   0.41256   0.103715  
         B         B         0.42298   0.49282   0.46705   0.719529  
         O         O         0.43072   0.45511   0.49764   -0.569150           
         C         C         0.83356   0.09199   0.95119   -0.083670           
         C         C         0.80157   0.08468   0.98821   -0.204371           
         C         C         0.80923   0.04598   0.01861   -0.087208           
         C         C         0.84749   0.01586   0.01225   -0.058447           
         C         C         0.87945   0.02303   0.97514   -0.246512           
         C         C         0.87174   0.06167   0.94478   -0.051343           
         H         H         0.82811   0.12142   0.92705   0.099123  
         H         H         0.78455   0.03897   0.04706   0.102693  
         H         H         0.85288   0.98614   0.03599   0.106696  
         H         H         0.89582   0.06763   0.91567   0.103242  
         B         B         0.92165   0.98915   0.96772   0.718772  
         O         O         0.92868   0.95050   0.99740   -0.568801           
         C         C         0.16896   0.40642   0.95208   -0.086733           
         C         C         0.19996   0.41392   0.98991   -0.203652           
         C         C         0.19182   0.45286   0.01969   -0.086121           
         C         C         0.15379   0.48296   0.01209   -0.055979           
         C         C         0.12274   0.47545   0.97422   -0.250646           
         C         C         0.13099   0.43669   0.94441   -0.048851           
         H         H         0.17486   0.37694   0.92824   0.097256  
         H         H         0.21580   0.45981   0.04878   0.102055  
         H         H         0.14795   0.51292   0.03530   0.107239  
         H         H         0.10735   0.43063   0.91492   0.102965  
         B         B         0.08050   0.50891   0.96602   0.720049  
         O         O         0.07369   0.54761   0.99539   -0.569603           
         C         C         0.66955   0.91021   0.44980   -0.087545           
         C         C         0.69697   0.91291   0.49089   -0.203402           
         C         C         0.68557   0.94781   0.52433   -0.085932           
         C         C         0.64776   0.97833   0.51724   -0.056498           
         C         C         0.61988   0.97514   0.47640   -0.247821           
         C         C         0.63160   0.94070   0.44277   -0.051745           
         H         H         0.67818   0.88417   0.42306   0.098505  
         H         H         0.70685   0.95135   0.55600   0.102916  
         H         H         0.63948   0.00519   0.54330   0.106772  
         H         H         0.61082   0.93826   0.41071   0.103745  
         B         B         0.57761   0.00875   0.46867   0.721092  
         O         O         0.56910   0.04548   0.50002   -0.569739           
         C         C         0.83225   0.90545   0.55144   -0.085164           
         C         C         0.80112   0.91176   0.51351   -0.202443           
         C         C         0.81050   0.94850   0.48125   -0.087075           
         C         C         0.84966   0.97781   0.48663   -0.051354           
         C         C         0.88091   0.97155   0.52459   -0.249447           
         C         C         0.87144   0.93493   0.55684   -0.052222           
         H         H         0.82558   0.87753   0.57703   0.098191  
         H         H         0.78650   0.95422   0.45192   0.102186  
         H         H         0.85637   0.00590   0.46129   0.103384  
         H         H         0.89523   0.92981   0.58638   0.103658  
         B         B         0.92377   0.00496   0.53117   0.716338  
         O         O         0.93098   0.04237   0.50004   -0.568513           
         C         C         0.33171   0.41075   0.05417   -0.086086           
         C         C         0.30335   0.41465   0.01385   -0.204002           
         C         C         0.31402   0.45040   0.98089   -0.085739           
         C         C         0.35204   0.48088   0.98780   -0.054442           
         C         C         0.38059   0.47684   0.02809   -0.248693           
         C         C         0.36980   0.44131   0.06110   -0.050887           
         H         H         0.32376   0.38377   0.08035   0.100605  
         H         H         0.29206   0.45441   0.94976   0.102871  
         H         H         0.35981   0.50837   0.96208   0.103527  
         H         H         0.39154   0.43812   0.09246   0.103360  
         B         B         0.42265   0.51090   0.03581   0.719457  
         O         O         0.43080   0.54774   0.00446   -0.570446           
         C         C         0.66275   0.09502   0.04243   -0.085535           
         C         C         0.69671   0.08487   0.00797   -0.203703           
         C         C         0.69027   0.04404   0.98025   -0.086553           
         C         C         0.65085   0.01504   0.98613   -0.057919           
         C         C         0.61673   0.02531   0.02045   -0.247335           
         C         C         0.62361   0.06566   0.04869   -0.052247           
         H         H         0.66733   0.12592   0.06482   0.098934  
         H         H         0.71668   0.03467   0.95420   0.101445  
         H         H         0.64635   0.98373   0.96435   0.106633  
         H         H         0.59799   0.07378   0.07584   0.103988  
         B         B         0.57348   0.99245   0.02766   0.721314  
         O         O         0.56512   0.95466   0.99749   -0.570689           
         C         C         0.17002   0.58881   0.55117   -0.086777           
         C         C         0.19885   0.58519   0.51120   -0.202511           
         C         C         0.18845   0.54944   0.47818   -0.084462           
         C         C         0.15003   0.51922   0.48438   -0.053630           
         C         C         0.12066   0.52339   0.52394   -0.251091           
         C         C         0.13159   0.55848   0.55736   -0.048553           
         H         H         0.17785   0.61544   0.57770   0.097342  
         H         H         0.21093   0.54510   0.44754   0.101943  
         H         H         0.14241   0.49184   0.45857   0.103817  
         H         H         0.10972   0.56158   0.58857   0.103040  
         B         B         0.07770   0.49011   0.53086   0.719340  
         O         O         0.06922   0.45254   0.50026   -0.568971           
         C         C         0.59390   0.45335   0.33495   -0.085186           
         C         C         0.58646   0.49011   0.30244   -0.203110           
         C         C         0.54753   0.52017   0.30925   -0.088502           
         C         C         0.51716   0.51359   0.34715   -0.054725           
         C         C         0.52445   0.47667   0.37961   -0.248965           
         C         C         0.56328   0.44663   0.37272   -0.050989           
         H         H         0.62355   0.42951   0.33029   0.099641  
         H         H         0.54073   0.54857   0.28427   0.102880  
         H         H         0.48722   0.53706   0.35176   0.106542  
         H         H         0.56932   0.41783   0.39739   0.103649  
         B         B         0.49057   0.46896   0.42160   0.716293  
         O         O         0.45288   0.49955   0.42887   -0.567324           
         C         C         0.09143   0.95221   0.83337   -0.086272           
         C         C         0.08479   0.99126   0.80336   -0.204252           
         C         C         0.04709   0.02213   0.81281   -0.085522           
         C         C         0.01740   0.01444   0.85100   -0.054286           
         C         C         0.02408   0.97544   0.88117   -0.248772           
         C         C         0.06163   0.94451   0.87162   -0.051122           
         H         H         0.11986   0.92746   0.82643   0.099107  
         H         H         0.04073   0.05214   0.78961   0.102552  
         H         H         0.98838   0.03858   0.85767   0.104244  
         H         H         0.06714   0.91403   0.89440   0.103261  
         B         B         0.99052   0.96691   0.92325   0.719840  
         O         O         0.95277   0.99728   0.93088   -0.569231           
         C         C         0.40493   0.95500   0.16367   -0.087097           
         C         C         0.41499   0.99082   0.19650   -0.202519           
         C         C         0.45468   0.01983   0.18855   -0.086399           
         C         C         0.48321   0.01311   0.14932   -0.055192           
         C         C         0.47349   0.97681   0.11680   -0.248120           
         C         C         0.43376   0.94799   0.12468   -0.051445           
         H         H         0.37454   0.93207   0.16906   0.098231  
         H         H         0.46358   0.04759   0.21358   0.103264  
         H         H         0.51378   0.03573   0.14372   0.104667  
         H         H         0.42573   0.91977   0.09994   0.103349  
         B         B         0.50619   0.96854   0.07407   0.720088  
         O         O         0.54280   0.00006   0.06486   -0.570015           
         C         C         0.91267   0.44887   0.66937   -0.085654           
         C         C         0.91711   0.48968   0.69731   -0.205156           
         C         C         0.95221   0.52305   0.68553   -0.086017           
         C         C         0.98149   0.51595   0.64699   -0.056787           
         C         C         0.97683   0.47521   0.61885   -0.248819           
         C         C         0.94198   0.44184   0.63075   -0.049992           
         H         H         0.88612   0.42241   0.67798   0.098471  
         H         H         0.95680   0.55465   0.70698   0.102880  
         H         H         0.00836   0.54209   0.63833   0.106875  
         H         H         0.93817   0.41005   0.60951   0.103749  
         B         B         0.00976   0.46696   0.57642   0.718603  
         O         O         0.04745   0.49749   0.56854   -0.568359           
         C         C         0.90826   0.54624   0.83517   -0.087316           
         C         C         0.91753   0.51092   0.80170   -0.205320           
         C         C         0.95711   0.48174   0.80834   -0.084192           
         C         C         0.98603   0.48728   0.84753   -0.053981           
         C         C         0.97654   0.52233   0.88132   -0.248443           
         C         C         0.93724   0.55176   0.87440   -0.050920           
         H         H         0.87836   0.56972   0.83021   0.099296  
         H         H         0.96547   0.45485   0.78230   0.102154  
         H         H         0.01662   0.46467   0.85217   0.104202  
         H         H         0.92981   0.57937   0.89991   0.103427  
         B         B         0.00948   0.52913   0.92412   0.717326  
         O         O         0.04891   0.50045   0.92956   -0.567745           
         C         C         0.41112   0.05148   0.33125   -0.084759           
         C         C         0.41674   0.01233   0.30130   -0.205726           
         C         C         0.45354   0.98039   0.31104   -0.085366           
         C         C         0.48322   0.98714   0.34951   -0.054077           
         C         C         0.47747   0.02620   0.37964   -0.249388           
         C         C         0.44097   0.05833   0.36967   -0.050358           
         H         H         0.38345   0.07709   0.32413   0.098114  
         H         H         0.45924   0.95033   0.28783   0.102822  
         H         H         0.51137   0.96204   0.35647   0.103760  
         H         H         0.43622   0.08896   0.39231   0.103659  
         B         B         0.51079   0.03361   0.42221   0.721236  
         O         O         0.54769   0.00238   0.43047   -0.570066           
         C         C         0.08835   0.05255   0.66899   -0.087025           
         C         C         0.08333   0.01344   0.69921   -0.202275           
         C         C         0.04765   0.98010   0.68920   -0.086830           
         C         C         0.01869   0.98531   0.64998   -0.052754           
         C         C         0.02402   0.02426   0.61942   -0.247704           
         C         C         0.05921   0.05783   0.62983   -0.051808           
         H         H         0.11507   0.07918   0.67649   0.098026  
         H         H         0.04229   0.95004   0.71262   0.103113  
         H         H         0.99145   0.95914   0.64261   0.103247  
         H         H         0.06349   0.08839   0.60689   0.103864  
         B         B         0.99120   0.03056   0.57635   0.717506  
         O         O         0.95470   0.99844   0.56860   -0.566467           
         C         C         0.59536   0.54891   0.16651   -0.085261           
         C         C         0.58718   0.51189   0.19864   -0.203617           
         C         C         0.54748   0.48266   0.19166   -0.087453           
         C         C         0.51719   0.49009   0.15386   -0.053062           
         C         C         0.52516   0.52731   0.12185   -0.250775           
         C         C         0.56482   0.55651   0.12881   -0.048935           
         H         H         0.62558   0.57220   0.17144   0.098744  
         H         H         0.54004   0.45422   0.21647   0.102411  
         H         H         0.48663   0.46728   0.14900   0.103682  
         H         H         0.57145   0.58548   0.10441   0.102954  
         B         B         0.49069   0.53569   0.08051   0.716743  
         O         O         0.45265   0.50512   0.07398   -0.567939           
         C         C         0.45432   0.33716   0.59464   -0.084614           
         C         C         0.48960   0.30358   0.58557   -0.206630           
         C         C         0.51815   0.31003   0.54561   -0.084792           
         C         C         0.51156   0.34865   0.51580   -0.056597           
         C         C         0.47595   0.38205   0.52455   -0.247310           
         C         C         0.44753   0.37564   0.56456   -0.052725           
         H         H         0.43174   0.33283   0.62521   0.098591  
         H         H         0.54533   0.28419   0.53754   0.102204  
         H         H         0.53380   0.35314   0.48504   0.106567  
         H         H         0.41979   0.40105   0.57181   0.104128  
         B         B         0.46792   0.42413   0.49051   0.720005  
         O         O         0.49763   0.43117   0.45229   -0.569148           
         C         C         0.95211   0.83137   0.09265   -0.085815           
         C         C         0.98949   0.79968   0.08532   -0.203240           
         C         C         0.01914   0.80741   0.04636   -0.086927           
         C         C         0.01223   0.84589   0.01642   -0.054186           
         C         C         0.97491   0.87773   0.02388   -0.250368           
         C         C         0.94488   0.86954   0.06231   -0.050650           
         H         H         0.92834   0.82590   0.12211   0.098484  
         H         H         0.04762   0.78273   0.03925   0.102053  
         H         H         0.03569   0.85142   0.98672   0.105906  
         H         H         0.91560   0.89356   0.06817   0.103092  
         B         B         0.96680   0.92038   0.99057   0.720379  
         O         O         0.99758   0.92879   0.95345   -0.568677           
         C         C         0.94937   0.16387   0.40585   -0.087449           
         C         C         0.98728   0.19542   0.41214   -0.203900           
         C         C         0.01875   0.18693   0.44953   -0.083232           
         C         C         0.01255   0.14835   0.47947   -0.055789           
         C         C         0.97458   0.11678   0.47328   -0.251330           
         C         C         0.94321   0.12519   0.43587   -0.047947           
         H         H         0.92441   0.16984   0.37742   0.098344  
         H         H         0.04814   0.21108   0.45536   0.101851  
         H         H         0.03698   0.14248   0.50835   0.105071  
         H         H         0.91351   0.10131   0.43070   0.102654  
         B         B         0.96756   0.07439   0.50720   0.722036  
         O         O         0.99746   0.06846   0.54554   -0.569218           
         C         C         0.45058   0.66454   0.90654   -0.086295           
         C         C         0.48718   0.69756   0.91292   -0.204048           
         C         C         0.51738   0.69183   0.95186   -0.084505           
         C         C         0.51142   0.65421   0.98305   -0.055696           
         C         C         0.47477   0.62113   0.97671   -0.248504           
         C         C         0.44449   0.62702   0.93796   -0.050190           
         H         H         0.42655   0.66858   0.87700   0.098040  
         H         H         0.54541   0.71751   0.95799   0.102563  
         H         H         0.53500   0.65022   0.01294   0.104879  
         H         H         0.41580   0.60193   0.93282   0.103006  
         B         B         0.46760   0.57952   0.01149   0.718781  
         O         O         0.49750   0.57353   0.04982   -0.565992           
         C         C         0.54535   0.83418   0.90431   -0.087099           
         C         C         0.50822   0.80187   0.91119   -0.202761           
         C         C         0.47740   0.80951   0.94918   -0.087111           
         C         C         0.48343   0.84806   0.97916   -0.050875           
         C         C         0.52069   0.88041   0.97240   -0.251625           
         C         C         0.55139   0.87275   0.93439   -0.050240           
         H         H         0.56992   0.82876   0.87551   0.098714  
         H         H         0.44870   0.78463   0.95549   0.102675  
         H         H         0.45935   0.85322   0.00839   0.103174  
         H         H         0.58039   0.89735   0.92871   0.102754  
         B         B         0.52855   0.92288   0.00602   0.720638  
         O         O         0.49975   0.92941   0.04499   -0.568658           
         C         C         0.04819   0.33062   0.40829   -0.086312           
         C         C         0.00880   0.30072   0.41339   -0.203632           
         C         C         0.97708   0.31032   0.45022   -0.083814           
         C         C         0.98437   0.34844   0.48052   -0.054938           
         C         C         0.02364   0.37860   0.47510   -0.247547           
         C         C         0.05542   0.36881   0.43856   -0.051639           
         H         H         0.07350   0.32379   0.38049   0.098036  
         H         H         0.94656   0.28744   0.45530   0.102619  
         H         H         0.95955   0.35510   0.50884   0.103618  
         H         H         0.08618   0.39147   0.43427   0.102987  
         B         B         0.03197   0.42134   0.50825   0.719525  
         O         O         0.00234   0.42879   0.54638   -0.567793           
         C         C         0.05263   0.66733   0.08968   -0.085139           
         C         C         0.01191   0.69537   0.08642   -0.205882           
         C         C         0.97814   0.68382   0.05191   -0.086085           
         C         C         0.98462   0.64535   0.02206   -0.052445           
         C         C         0.02538   0.61723   0.02531   -0.248860           
         C         C         0.05920   0.62893   0.05959   -0.051350           
         H         H         0.07939   0.67591   0.11575   0.101238  
         H         H         0.94678   0.70564   0.04819   0.102534  
         H         H         0.95810   0.63680   0.99574   0.103145  
         H         H         0.09093   0.60759   0.06227   0.103569  
         B         B         0.03328   0.57504   0.99156   0.717661  
         O         O         0.00029   0.56440   0.95694   -0.567969           
         C         C         0.55052   0.16930   0.59081   -0.086208           
         C         C         0.51068   0.19839   0.58603   -0.202946           
         C         C         0.47791   0.18739   0.55038   -0.087904           
         C         C         0.48475   0.14875   0.52076   -0.055946           
         C         C         0.52461   0.11958   0.52564   -0.250593           
         C         C         0.55725   0.13049   0.56127   -0.048985           
         H         H         0.57663   0.17747   0.61764   0.098844  
         H         H         0.44702   0.20964   0.54553   0.103066  
         H         H         0.45922   0.14088   0.49328   0.106650  
         H         H         0.58833   0.10842   0.56543   0.103038  
         B         B         0.53288   0.07749   0.49177   0.720705  
         O         O         0.50421   0.07155   0.45254   -0.570366           
         Si        Si        0.37714   0.00107   0.24960   0.681512  
         Si        Si        0.12315   0.00326   0.75098   0.680548  
         Si        Si        0.62621   0.50050   0.25070   0.680838  
         Si        Si        0.87854   0.50061   0.74950   0.684142  
         Si        Si        0.25180   0.37476   0.00212   0.681544  
         Si        Si        0.74933   0.12422   0.99785   0.680203  
         Si        Si        0.25025   0.62581   0.50020   0.682427  
         Si        Si        0.74854   0.87299   0.50215   0.680675  
         Si        Si        0.99826   0.24843   0.37365   0.680569  
         Si        Si        0.00147   0.74797   0.12523   0.681030  
         Si        Si        0.50057   0.25124   0.62477   0.682473  
         Si        Si        0.49792   0.74901   0.87241   0.681763 

